72

H              2.1979928764452863              1.3501307513046585              0.960553987673642
H              1.5959161984367476              1.7260134470832977              0.7872989185637502
H              0.41736869727717135              -0.7628843199611797              -1.8920195852197095
H              0.3094707991351602              -0.044883485906908056              -2.0380033812606655
H              5.705320621169897              2.686696004523916              1.3483769583896907
H              5.259947743283559              2.0376998406714657              1.294752162963024
H              4.019230767155632              5.008941412145202              2.9479110908450847
H              4.397742132587979              4.446018159864612              2.9151320263275977
H              3.107864784569383              1.5104958749689052              3.131909630591832
H              3.423835965771701              2.1063179413874913              2.9656694885772534
H              3.385741279692829              4.140596381988748              0.3797804960774748
H              2.956660426579433              4.595423828382891              0.7298523728867041
H              2.4812661228975683              1.3663520197135517              0.8482426686767524
H              1.9467506166153126              1.8019146767466847              0.6531119563096669
H              0.39350378440273187              -0.9080767984518469              -1.999533707541108
H              0.21834022331950792              -0.0778440182275433              -2.1303693494671245
H              5.409991942687952              2.630427618396696              1.3103884619812858
H              5.247876576919829              1.9575851594557785              0.894212807784236
H              3.838771017339497              4.715500629486018              3.127841947463983
H              4.295137335256589              4.292360253488271              2.7890005859650495
H              2.9749883834310213              1.3339082159713462              3.2915456387132287
H              3.1691817794566344              2.0374389606851717              3.195012689480107
H              3.181234008815626              4.0308393021086255              0.6982072846509383
H              2.588012366177894              4.464440855599553              0.4376420776479467
H              2.3901573807727527              1.4419014081449195              0.9275237271241014
H              1.710860358676267              1.7816754405869697              0.8842989984630822
H              0.4624832628577142              -0.596308837694189              -1.72472494352526
H              0.3391573311308316              -0.09474109017923511              -2.213083201202604
H              5.580515179044736              2.449929587570279              1.5112877124517168
H              5.263033317914611              1.9999692036526997              1.0567805747603474
H              4.10161714636666              4.499109745245966              3.2240389059218084
H              4.256592465296487              4.248263329143877              2.521662768777116
H              3.198475348934201              1.293249986733689              3.406613177570288
H              3.2551777526835295              2.014851439082583              3.1817517408920817
H              2.803018988892302              4.158729451733833              0.8678202802847831
H              2.568939091111648              4.703980540302944              0.3889150616649338
H              2.2454225637236              1.6567923194591978              0.5439023979465546
H              1.7180723891782388              1.900981325684916              1.0909578945994889
H              0.47440299696685817              -0.4318202088275505              -1.7526563663765131
H              0.3839725557130399              0.16833260035610428              -2.037622092261967
H              5.413551937015521              2.542017478111947              1.074385352707555
H              4.938357994847594              1.9758011583773396              1.136101728708556
H              3.897714381135728              4.495917985749376              3.1019069962667167
H              4.313807556126299              4.190836038898687              2.580013137061419
H              3.7934221657292992              1.385629438619874              3.3311564651888124
H              3.132379266568351              1.7397623650465512              3.216803751707582
H              2.7857520307950927              3.968522577079852              0.5580915340234543
H              2.8152560078621214              4.711345933034018              0.457623756285597
H              1.9529525029368386              1.6090762815812365              0.9501742529985897
H              1.4475927468337038              1.8535277662313387              0.4921284732652443
H              0.5468330756974411              -0.5192769595849885              -1.838674662871572
H              0.6685318108262008              0.27457755176092796              -1.9988786316160894
H              5.351277941467363              2.4261937389599044              1.4891876099752692
H              5.011001552744172              1.9800048717876493              0.943494465629262
H              4.1024832047687205              4.833582981567021              3.125636230394317
H              3.989639716623458              4.178047052571534              2.7917263737994404
H              3.4411792644287966              0.8491996713432394              3.222415743998578
H              3.404314791462329              1.5641059006775446              3.610823619900183
H              2.9259972986549583              4.007355770777519              0.5925208875028583
H              2.989211311444099              4.759696659754303              0.5887698022752426
H              2.151588791583256              1.368848719885172              0.8567611931651125
H              1.4778506214544571              1.743246231771034              0.8768408750286903
H              0.9408143220896111              -0.6517521589604585              -1.7743206357242542
H              0.6149535542419545              0.08599899889306765              -1.8242029215422562
H              5.629159027864916              2.488707416521611              1.4327493390542017
H              4.911070807339115              2.062347138079396              1.3946341528868331
H              4.261889746923824              4.8325240955739766              3.1998650611178046
H              4.185535397583206              4.331585309706999              2.7170126445692175
H              3.3334916879283365              1.264102735559237              3.5187050547631773
H              3.187284258422765              1.9225416030247215              3.042980247715336
H              3.3642909359419435              4.097949531150546              0.5188225577959514
H              3.0751543952517846              4.751684705978198              0.5688896341148569
