72

H              2.421649707834811              1.2853037022825278              0.5666937858516278
H              1.9915029786144172              1.8666055457239012              0.7631449455402195
H              -1.4514812403954216              -1.3260620165489896              -1.690847380499235
H              -1.203036931613354              -1.7081247674047053              -2.4459219089249244
H              5.039410513521799              2.398173951239348              1.2306443892899201
H              4.866856795993041              2.4392153094408737              0.47712023995607133
H              4.58336232736753              4.673721494433019              2.9337819886888092
H              4.5835276234908235              3.917175171637771              3.029032012458318
H              3.5142524997468136              1.8616275383319014              3.5080219602658733
H              2.954980162388121              2.3826605072177385              3.358439894057127
H              3.1585457877194862              4.475454946174479              0.7029555077659454
H              2.513685952185132              4.623368758583968              0.36368030430105774
H              2.687230766482055              1.676406656529237              0.7816847295256991
H              1.9049399339885598              1.725344786575035              0.7851221399329533
H              -1.6928928147597369              -1.5509458965339271              -2.003759296678507
H              -1.3920578388977023              -1.7599447415712457              -2.626006529148576
H              5.139388632758056              2.395775192404789              1.2109086619911462
H              4.9988044444653505              2.5053914921868397              0.4605560790612217
H              4.455740082778853              4.696038802802004              3.089862388917523
H              4.4712224872474495              3.944566244694307              2.851541094480189
H              3.186097845824563              1.482776326724034              3.4577176746210077
H              2.7659534792928535              2.112293158952495              3.5196090969789933
H              3.0588748450969314              4.6356132710317235              0.697772570885575
H              2.5364337226237055              4.197052413140772              0.3331924037518751
H              2.6099480168439317              1.670523270362568              0.7154945445221783
H              1.8673275214644296              1.5992326185885986              0.8693453454568862
H              -1.5735036744380433              -1.3241003278425822              -2.087543886416337
H              -1.162448384795686              -1.6260176517340992              -2.5125721384403237
H              5.256760300566253              2.2726289928412213              1.2111021117569902
H              4.942313369978791              2.57502762065484              0.5462742836046286
H              4.577200393938886              4.669809250507348              3.0253143916855394
H              4.635799518144864              3.9577496639257554              3.120208736465574
H              2.8923804221956506              1.7365353692826915              3.6846068173439837
H              3.030784368064376              2.335140433009769              3.530828712668326
H              2.995776181591929              4.280623212317196              0.8189414352256321
H              2.5105737186150026              4.1586951765371145              0.29026505462280744
H              2.2741155666127515              1.6110835217646942              0.6486358975788661
H              1.7645298080477436              1.9295032191000199              1.058492395367965
H              -1.4944319646700222              -1.1459934777308876              -1.7573366444609837
H              -1.350427159161345              -1.2132680830431648              -2.5087291605885658
H              4.683359571413532              2.4713015617104936              1.0963524247914909
H              5.0310022620154795              2.523415984142742              0.36784374202195
H              4.4835860494470525              4.801501587858937              2.74476619726785
H              4.88652425117682              4.285735183020031              3.134690645898687
H              3.4884989400169197              1.5593342169813378              3.587166084035092
H              3.2883047924016395              2.241953177654072              3.6071487879182076
H              2.7864983172453632              4.48913704259283              1.0860153871955325
H              2.823131615796789              4.4847316796723256              0.36522274429638846
H              2.329469851917714              1.348684389685821              0.5250811291663404
H              1.6680871231762442              1.703637133022126              0.8542268737034843
H              -1.3653459783342776              -1.230412604262542              -1.7576099745856268
H              -1.2583592165699244              -1.2582017918576658              -2.46726026112186
H              4.965087328706195              2.2752163282695057              1.1171355899897082
H              4.717704434500697              2.1761959116901073              0.361230508693134
H              4.175858925263665              4.761723484443781              2.8733570082471376
H              4.543995082851861              4.123687462117234              3.109207600435459
H              3.6822719414907294              1.8258593050120913              3.6615705267425427
H              3.14020087844718              1.736223989271221              3.2616438360966007
H              3.032075260614271              4.415415672361391              0.9874409774737921
H              3.034251847185477              4.3995691349316335              0.21422840575126714
H              2.402312402574233              1.5180424870630345              0.5330947044537226
H              1.754725105528976              1.9670062556927985              0.6730433618931421
H              -1.1320645876171447              -1.3660127827057131              -1.7325799546642893
H              -1.103751685623224              -1.434138268087227              -2.5490962139344133
H              5.031032849936875              2.1980121879699306              1.4637856166174394
H              5.198383569385793              2.224227970352886              0.6893040011740293
H              4.373948251225415              4.653442157639425              3.0453688903689695
H              4.598510810837098              4.023791823680277              2.8221180872685387
H              3.522231061517739              1.7799801318123842              3.6388091580573683
H              3.038775103044612              2.172448755831112              3.3120589333889034
H              3.2935965061265065              4.543961160769831              0.9726996548596343
H              2.8743804991615294              4.5500435164285165              0.26648802953316
