72

H              1.4998100380528423              1.7011633631167256              -0.1410471165824622
H              1.3015196431571328              1.190913397519806              0.3355464179750405
H              -1.3059197351388556              -0.2962241432610858              -2.301426993005745
H              -0.5651435245292427              -0.4340641160895704              -2.5291252739578827
H              4.229863532268485              1.833764127833115              0.7591951640453835
H              4.691987410496309              2.493628567554197              0.8362779224560567
H              3.7390535643019236              3.9655159971500957              2.8549879284706012
H              3.974196571169367              4.68807913427815              2.827957874907962
H              1.798260461653208              1.9200276650841355              2.315522576059048
H              2.394991786668218              1.9946690724482112              2.679718389610594
H              2.1072789406916104              4.004627094069274              0.27821043266191114
H              1.8765123978776774              4.076952012605627              0.9589555914414605
H              1.5249942110269297              1.3439654349728651              -0.1503637930511177
H              1.6603849893388694              1.229432996789719              0.5970188071014515
H              -1.1759814371242043              -0.11355487816377557              -2.0375852597421096
H              -0.4860195753997494              -0.32270164064557516              -2.1021902399127046
H              4.4899714491203              1.7521143622202544              0.3638891669289654
H              4.429376836810337              2.453743303862248              0.6240400566257803
H              4.011161021942746              3.840213201252123              2.8991968344098296
H              3.9816884675530573              4.565012668549493              2.8085964346086127
H              2.099054322348034              1.8772589896790957              2.4646097624674144
H              2.2029526383878357              1.9463017984876443              3.2053493635312957
H              2.0545057984938917              3.723167025903531              0.2826925526164393
H              1.852749612764176              4.058765933540353              0.9348380283156694
H              1.4788209841954485              1.6863728002155833              0.2135153440470074
H              1.4395285213681588              1.0370434254617613              0.4848058742770142
H              -1.4242411089260385              -0.2461277014948428              -2.2005480170419562
H              -0.918777697339948              -0.5078552346801883              -1.7764361351321902
H              4.29634265372274              1.6250656327266488              0.432559975569104
H              4.7672831116138035              2.258228858083873              0.4542410497166901
H              3.6733044943092765              3.964523281290052              3.1212880841023884
H              4.122176209709603              4.355570700765776              2.706796308102089
H              2.3109752710519014              1.8539904722931089              2.620173124381629
H              1.957628503411725              1.8411224731138804              3.181213123364381
H              2.264051403451032              4.13709492222157              0.40278948661461483
H              1.6621049390086329              4.304971496263167              0.7515013240771171
H              1.7574211259842123              1.4844526214086313              0.06375633848037547
H              1.1815191600391912              1.178944762597762              0.37535541630001545
H              -1.6609652741826126              -0.44480937532065595              -2.3585552226234068
H              -0.9202560034789775              -0.4574238927592007              -1.8907409907332058
H              3.9550962193891905              1.693824702986201              0.8102823063842569
H              4.566993430121606              2.109278617069476              0.9071841521368811
H              3.379972025390411              3.9488456733198727              3.084817582317192
H              3.8548224915814373              4.401152581435563              2.7396085469318194
H              1.737757043760342              1.9284882119182418              2.635142211307968
H              2.1324451906333617              1.7479078987974923              3.2488187456779487
H              2.1168099809211753              4.046782228110642              0.3194083205565182
H              1.690586075890533              3.8956020666763167              0.9046492666408086
H              1.5388231737749374              1.6728276950867444              -0.11478136679493577
H              1.27156835290549              1.184747810206927              0.4146042732127447
H              -1.5953171398606143              -0.4724810260324735              -2.3771814916924314
H              -0.9566747053838784              -0.30580618678191224              -2.205494318456284
H              4.332802627600652              1.71188092932601              1.0659908112735725
H              4.410502900374283              2.3339701593333912              0.5130297195298957
H              3.3090776053741275              4.47780216258935              2.643671317415103
H              4.098963032378541              4.570645628880428              2.4815525743901508
H              1.8718468430283046              1.5844607740308638              2.634495499172248
H              2.2700680709778145              1.9312201390130703              3.1883700175975873
H              2.1380504252356363              3.8665894247052823              0.5198351646741789
H              1.7520122749911187              4.448653214952014              0.9087067818236135
H              1.6865724579079047              1.6372440133750021              0.02889237393293103
H              1.0379680460155136              1.2168527727023755              0.07966244853742338
H              -1.6016117769148177              -0.2278589504522849              -2.4802845363388766
H              -0.9384102473044533              -0.35325401773936604              -2.35784792039119
H              4.001750686376915              1.7873865631228436              0.6058009465122981
H              4.297488441732794              2.4915915837304765              0.7016661083478676
H              3.4333781058909465              4.359747200786255              3.0416614818492467
H              3.811863598836861              4.619043504986675              2.4862276200599434
H              2.0011999607804825              2.1757294090673316              2.225631512361638
H              2.391513295193936              1.8379649262864237              2.891990333026927
H              2.2375362054155326              3.9226869924800254              0.3844387073992229
H              1.6986539839746382              4.234383561061878              0.7859593517930652
