72

H              1.391070219062192              0.7983626462186375              -0.5190083452112285
H              1.0976869905408335              0.9763146046096439              0.09362026506712837
H              -1.2348566691220806              -2.4535409932773744              -2.0065956222476076
H              -1.9022536968458843              -2.8160460054803065              -2.2417349090624916
H              3.969977151635429              1.4251456229986237              1.5221367545265507
H              4.580337107391432              1.406119076082667              1.0688626667133556
H              3.951613671194492              3.649534248362784              3.386500219104504
H              4.36305636746322              4.073270810774227              2.8795334886101864
H              1.4443890222849651              2.008707849990743              2.581558560767105
H              1.2101489890763022              2.496168904602538              2.0812043606107946
H              2.8846153491963453              3.9509614109316553              0.07314945498048159
H              2.285296436880556              3.5477542733809946              0.1449321200731116
H              1.2676291347304793              0.4543152260919144              -0.3144905780800079
H              1.053974060121689              1.0550361555165397              -0.022205164550525784
H              -1.0718083302294645              -2.4042447232874307              -2.1498576216624463
H              -1.588769457998386              -2.7604831156885647              -2.281407664886937
H              3.979630355168772              1.3872410680351472              1.4408865591342215
H              4.54367035059771              1.5079020906585745              1.124314333840398
H              3.844159005720636              3.357476035380786              3.2924879511970295
H              4.000690876196971              4.037325767333787              2.972137487987682
H              1.4516425280645557              2.2086495775287824              2.341431492222507
H              0.8173929374710976              2.3684991283343777              2.3912740332942044
H              2.9501630583502783              3.6459472262595964              -0.19512807028774154
H              2.333324094127441              3.612822273198506              0.3045172332215965
H              0.7614860186116877              0.7052884443433352              -0.4310672069274866
H              1.2630074200042254              0.8169392938395971              0.11592844274991593
H              -0.9291882294059192              -2.5313001977695038              -2.141457869467719
H              -1.4102465061159837              -2.9024710063624797              -2.492046670079078
H              3.9799853309187245              1.3851517056334748              1.8078715329300858
H              4.487509553354396              1.4867752026328545              1.2521920782491123
H              3.747517832289278              3.569291148835941              3.2712975803591315
H              4.1893721480400545              4.060013723248623              2.7731079216414853
H              1.7646555436313338              2.1969392751866734              2.3900955129989554
H              1.0144054894019572              2.3998499974223093              2.394892234891327
H              2.9478460256077206              3.144421486470885              0.009074628835419542
H              2.4090088852529283              3.5983697291550505              0.2729847682959222
H              0.4461345493581275              0.5871639435960793              -0.39582653529070627
H              0.9713779270985221              1.0500440651357041              -0.23651217944941422
H              -0.8649199030908802              -2.690161490022649              -2.3324081006604196
H              -1.6311428399828374              -2.8364153584408096              -2.446707141450152
H              3.856678150846957              1.3764040510793716              1.5749298938774168
H              4.318136900798197              1.555773347733273              1.0268428738386683
H              3.701443564085201              3.8561903217248665              3.367737106555756
H              4.095861974264604              3.8777057885310224              2.6895277141327907
H              1.913139451814767              2.2634101237113637              2.279292061178165
H              1.1189309517567076              2.3901256340113903              2.3240665651387253
H              2.8302286018577605              3.651758203060661              -0.09303045816774919
H              2.5345901387490826              3.5079090999034244              0.5340983829031186
H              0.9940153292978587              0.6400217715847365              -0.271506494019184
H              0.8871293832185051              1.2655267455354258              -0.029969892931773413
H              -0.9022034184184027              -2.6601437607101275              -2.1564114902681877
H              -1.5623027623651153              -2.9426847108568266              -2.298139422200481
H              3.7457735579183264              1.3998467598147866              1.4957482613474415
H              4.406392590860129              1.101063864774753              1.1441496931340422
H              3.9617777521015043              3.6161164837812168              3.4420241233023314
H              4.372940028191221              3.8305910184436653              2.893178859116728
H              1.6752499697856504              2.1238389559949575              2.262022556441904
H              0.9588740754010763              2.4777616325058265              2.4207844817280204
H              2.847747146117659              3.912558927424206              0.24893185915369204
H              2.197469110060116              3.7382518536099205              0.5553070983053654
H              1.2535337726351363              0.8518716174298766              -0.4569575170622338
H              1.1623160416033333              0.9405867536735556              0.26270491503179455
H              -0.9749229280142568              -2.5574267394577666              -1.7234294326655926
H              -1.6226132832230653              -2.852726236920699              -2.108887523961551
H              4.068437947314024              1.0311867947666822              1.5702594810591874
H              4.518365435086673              1.4725750062751912              1.3041667983903429
H              4.215456939177985              3.7013159369416586              3.5312017556143727
H              4.395888934965061              3.819096691826326              2.779285147266021
H              1.407930424818244              2.037001540728524              2.5871405986306644
H              0.7331901079435963              2.4761897828154735              2.3903824502709603
H              2.668142773139102              4.036587148100927              0.4212862903577254
H              2.185217549479415              3.571443724820282              0.19695966613175214
