72

H              0.9527188048802179              1.1026074540187119              -0.4705111196521313
H              1.5599665055814955              1.1733475125128678              0.026943521733851377
H              -1.58901280705681              -1.4009836298546674              -2.1794173382391375
H              -1.8589833670709888              -1.5840683610014183              -1.5908616554460027
H              3.3774697461771392              1.4863262361344691              0.9900750389885745
H              3.9330601131591463              1.8246551464336769              1.2616817169154488
H              4.212307807565272              4.42557602245767              2.6926312669734913
H              3.8064479421851285              3.7537684960582              2.7711512082966157
H              1.2909740595643568              2.355337767375002              2.5368518301666905
H              1.9583912484650878              1.999557680683391              2.3173775312224874
H              2.1751066612736767              3.8676701997765592              0.5358066352897133
H              1.4984828282641436              3.973433851638223              0.9143922095125661
H              0.9805652128663682              0.8369625863903094              -0.5649916776679864
H              1.3501260951904634              1.317633145688205              -0.18916508141257987
H              -1.710264304620384              -1.5343612729962215              -2.449617700771049
H              -1.8259140311420303              -1.5374317816017382              -1.7817424004164713
H              4.024535933942028              1.3195660827076863              0.826731713413567
H              4.349351279161252              1.8534379226767568              1.1024900800124586
H              3.91542237300452              4.679988330451349              2.454687232950793
H              3.6752548580510442              4.145593556694009              2.923824661762195
H              1.106691069212999              2.3281944482800614              2.6919242307428024
H              1.7300370078883844              1.8395810187614479              2.5121217796924715
H              2.2879278090795165              3.9487545704927745              0.31435789144103726
H              1.567495258800738              3.989117734428176              0.48236097756186963
H              0.6518670360174033              0.6348625613400112              -0.3357412955129617
H              1.305039834248436              0.9758823765961984              -0.26300983013349843
H              -1.6537660773772436              -1.505911521336496              -2.790977458677061
H              -1.6019525026358437              -1.5507178653629508              -2.050519937313211
H              3.874498362599098              1.292413728678526              0.7625163956461192
H              4.321511990895145              1.8195017107615965              0.8235335596354392
H              3.9778094511748616              4.697718703845427              2.7532275691580805
H              3.4718255282839867              4.159111140615902              2.88596712825079
H              1.1948001569570954              2.2993580365201858              2.648769916766666
H              1.89167040144175              2.104749926316572              2.647023935756752
H              2.0233188221194394              3.833479963884959              -0.02436032375827031
H              1.8000010973167277              4.150225866654768              0.6483475249400319
H              0.6903228495476224              0.6079554946555777              -0.4684858308345297
H              1.1631043105529075              1.044546714671782              -0.013441661828814467
H              -1.3196245019286037              -1.3957325736804005              -2.426537894474477
H              -1.2370403042072406              -1.6993546148534018              -1.8445332939148618
H              3.851771081760728              1.3785030543285053              0.8289395025085021
H              4.045306983870551              2.09624744014815              0.9452785797285422
H              4.266868443436896              4.450851307715253              2.5547072548176337
H              3.776468034091361              4.126400463822764              2.9468217013079547
H              1.0854456602898823              2.377372658111364              2.919480894030994
H              1.7425849427971019              1.9324480258834547              2.6632523727816677
H              2.215859313322407              4.0221889599644225              0.3211799622962382
H              1.6646864740139637              4.149163364994667              0.8333971756901758
H              1.3249528926693015              0.6430166419649951              -0.6591755405643435
H              1.0186254657256129              0.7573802599477902              0.061027891471040895
H              -1.5397132349214557              -1.2553031428825732              -2.2145866628193525
H              -1.5026284886177335              -1.9539682063571229              -1.8412368178502634
H              3.9100040987140234              1.4615686582725156              0.9250415989434294
H              4.181152591594371              2.0939851426373797              1.1080991313585595
H              4.2285155147435125              4.324554010798953              2.441125099612471
H              3.9330084269725827              4.094638478078399              3.0348116986435163
H              1.2158687209291346              2.3940149077073754              2.936484518172378
H              1.6998722289868324              1.8034992776243242              2.585239091575294
H              2.4101007616797068              4.061152337541386              0.74562737658045
H              1.6985182490789177              4.095160456140806              0.7534211730350754
H              0.8256847337392874              0.8286305809169443              -0.49608297517619043
H              1.2378542225050764              1.0233644722133919              0.14091820555172424
H              -1.6699388236614723              -1.456422524039947              -2.3506480672578625
H              -1.6798983492243045              -1.6357404239725317              -1.5413267272681916
H              3.5748434270833767              1.4683143375493224              0.7993649795418006
H              4.1470214811636446              1.9564694054878788              0.9817430271809576
H              4.099868878549016              4.371285850459162              2.6507897554697735
H              3.8629309940376704              3.7119105264699828              2.778811309542768
H              1.5172727584733916              2.0909922697901084              2.8415624150769485
H              1.4850794544188979              2.1740514141838596              2.172429665058049
H              2.214855646652497              4.19255541090269              0.5899394164433063
H              1.6032119560245277              4.200246912770075              1.0077638300895198
