72

H              0.9195249185447862              1.048347203739195              -0.45401771813605313
H              1.5117836162153648              1.1583893552028461              -0.14480639131749518
H              -1.5344984765228529              -1.3867955230804347              -2.297998879766496
H              -1.8630583600363928              -1.6337156337102794              -1.5496512369775755
H              3.51825937786341              1.4630558282839272              0.8639773379196516
H              3.9590232827543828              1.7873954192427792              1.4374874874651957
H              4.260215050756694              4.320226007543757              2.711982656609351
H              3.7080731833187395              3.807568895462377              2.885620164646562
H              1.2494065143410038              2.2933138179884875              2.6451643947221055
H              1.802604824079093              2.0640043991579478              2.1998189093626803
H              2.1230191085359276              3.942708790321972              0.4150111759206755
H              1.568230972554162              3.890017596163777              0.9203161431556751
H              0.8966061053772912              0.8335839399259077              -0.43684633702888964
H              1.4701369548180778              1.3961081969476308              -0.3430118144495891
H              -1.5756337118372894              -1.5578668081682296              -2.4598802218281803
H              -1.7032131930462557              -1.4758028066001403              -1.6788307759559082
H              3.9887511700298526              1.2609232734222324              0.8849074466333192
H              4.395995640054168              1.9337299549856846              0.9541327999600068
H              4.008648309560793              4.618878675798802              2.4230856753911665
H              3.766098995670751              4.14683564314156              2.9127556269357595
H              1.2300346474188957              2.2830007652878392              2.7173632543687356
H              1.76132240549487              1.870082638640923              2.553904001939082
H              2.3387752337382937              3.9116398397995997              0.2194192896679225
H              1.6086778436835991              4.011890808270676              0.5137186921591916
H              0.7394365293461387              0.6637338631582331              -0.4128582802630043
H              1.3307039324897214              1.0568395989366957              -0.34055312344672367
H              -1.5907037218716096              -1.5388277042148275              -2.698134662509593
H              -1.6572505028864422              -1.5657507605348921              -1.9628391674177825
H              3.813711533014147              1.25996239812551              0.647086374813292
H              4.283416100191892              1.8654169578791158              0.8352412925150814
H              3.975112217956498              4.63195141055469              2.6874065635828033
H              3.469798805381753              4.047193606778606              2.981321868117339
H              1.2189818675469806              2.373394349528301              2.612661939497796
H              1.9015043417602484              2.0266334953301888              2.7769709716731414
H              2.2233208277140273              3.855356767183351              -0.01876771365808985
H              1.816478399363791              4.118227134004924              0.5516584595917787
H              0.7793093568488509              0.6028205348525975              -0.5052418393943915
H              1.198972643427438              0.9555281133895389              -0.04584451987208398
H              -1.3604575238780066              -1.5274660093396113              -2.540348673063458
H              -1.2728067486698194              -1.8322045662417454              -1.7934415072095282
H              3.846239472271745              1.3434205736828035              0.900821814902454
H              4.198951511714686              1.9489805880426352              1.0494807297281192
H              4.18419393830005              4.4506644925726695              2.5447922492542663
H              3.684224512616015              4.055314892580228              2.9729995788356915
H              1.0538999490913878              2.2742086447209338              2.839587352659139
H              1.7129513001587258              2.036858586807356              2.682827895695346
H              2.2595249735232557              4.097278554962641              0.37530363340419276
H              1.6690935761972083              4.134077593553572              0.8013833758188547
H              1.1890773094303317              0.6171351871214918              -0.624781794130832
H              1.1294270437932656              0.8473214162250627              0.04693842709106366
H              -1.5828224773948907              -1.335890236556678              -2.1872867343419995
H              -1.5242566465448706              -1.9536130598469643              -1.9018425750775985
H              3.7574514520328033              1.3582395897249435              1.0318322697600792
H              4.067541761009641              2.065178362215771              1.017730175879241
H              4.162814377858918              4.420225347560299              2.33175622247414
H              3.935562807861227              4.122781396100071              3.048585398056717
H              1.3549338125817196              2.3012503908517727              3.006685240944763
H              1.641782674467582              1.8680967036415204              2.560711236013094
H              2.3694484081933846              3.9834685708221724              0.7458187880666581
H              1.6144831104504755              4.113336102047983              0.7904227527998655
H              0.9526323420644511              0.9191264859865472              -0.5531913526236295
H              1.2067701825463666              0.8227164092288021              0.14782187658067095
H              -1.7376761249229424              -1.4568856995771893              -2.2732025645053415
H              -1.8139144638888685              -1.7171405301253162              -1.6800329964702743
H              3.561198978969822              1.4868721690137519              0.8219734807891843
H              4.051644334805226              1.9365622833932676              0.9598490432541593
H              4.0709537954733515              4.476529323799738              2.596049150993147
H              3.938535207364619              3.7510262794292712              2.7763969966330793
H              1.5293042555938274              2.0652336414946886              2.8344199370554923
H              1.6207041407379623              2.182731715544553              2.0630603709333366
H              2.282675245173432              4.224501648296291              0.6736974816054553
H              1.6044494851923192              4.328074197408125              1.0039749953995847
