72

H              1.7431058961024752              1.9124055093393064              0.12370326593158187
H              1.2587780432753746              1.4599362236768947              0.6156600709422958
H              -1.4032777238324194              -0.2704561114335623              -2.251889817512701
H              -0.5839374212976877              -0.24193511475269933              -2.1646996089079584
H              4.341466019975497              1.758803563044288              1.0029795987381804
H              4.688757926075348              2.2918196238634847              0.6676769967527515
H              3.4451841666663383              4.078356800339957              2.8444115158421073
H              3.9503257207007643              4.582379453907977              3.1397426459017033
H              2.231329483054255              1.5558970337710436              2.9660027077549573
H              2.56680912870211              1.832160312116806              3.481685060820771
H              2.5503366686745013              4.299062536986803              0.28565215442262804
H              2.0781354570369164              3.992037012700974              0.8219539324894715
H              1.5380506400907827              2.0835240943110738              0.17944948101021327
H              1.5578320508275376              1.331135247942293              0.3042106387668969
H              -1.2667673947481526              -0.2855363909302899              -2.1818904330307873
H              -0.6519994314713008              0.04222091852851067              -2.340330505919426
H              4.544719225837812              1.884434320675203              0.8512523617668479
H              4.271787907971006              2.423585562287843              0.450145150981752
H              3.4493779761063825              4.469675052964558              2.3805658067776094
H              3.971377019492456              4.606532695354545              2.882564349102456
H              2.076508211569275              1.3744073905831915              3.200296126502375
H              2.713870350355195              1.7963792974360229              3.4199397892495496
H              2.5354853134464848              4.153443525186613              0.4235439006323284
H              1.9949814801218995              4.268851597070094              0.9165465665328988
H              1.647030940893477              1.8565733691731325              0.1570392876859173
H              1.22759084802792              1.2300721220477189              0.4791997420292556
H              -1.3665712405331327              0.0022091888774358375              -2.3029764298488087
H              -0.6943350015769764              -0.09307352256253014              -2.4869047770592827
H              4.327867847174093              1.8713623966982373              0.6785055404483316
H              4.341420031530333              2.5609114995657394              0.5677923825595882
H              3.4466421567805936              4.3783016679163635              2.678707840143877
H              4.03501319947135              4.737619339056939              2.8362878106156453
H              2.2620367244801067              1.7409429880540583              2.752900407985648
H              2.9410266120959814              1.666881846964896              3.072870406220525
H              2.5150210841964644              4.373828363648396              0.38539833487905867
H              2.0383829379076794              4.559755795976412              0.8385437899500101
H              1.6586182943364312              1.681607976762649              0.18721319221579014
H              1.5647485243686718              1.186260109380073              0.6502692448094459
H              -0.9498537123521358              -0.049003753178966485              -2.114721197852172
H              -0.4090640106840629              0.027766695300866662              -2.5882487751984087
H              4.383923591308543              1.8612200734377031              0.6640067202936678
H              4.4499689976289885              2.6507494548492283              0.7325976468689397
H              3.740918724913199              4.0543605525643205              2.6836111031492016
H              3.9094434239143943              4.589843622710888              3.124500418380844
H              2.2128411831043384              1.3667896924528793              2.5950175071401325
H              2.6631672032962643              2.0427497236956054              2.9353543412721774
H              2.4296294212594756              4.302768148716928              0.16080682848232344
H              2.280172432914626              4.143068118546445              0.8993346091080768
H              1.5641424899452043              1.7071578371084382              0.41222242913100837
H              1.6852822292267438              1.1135058414645487              0.8655250520790992
H              -0.9081106044376809              0.12215291496868741              -1.9306386354529554
H              -0.15332921778087658              0.05886195533705252              -2.2688179970283224
H              4.649207485492052              1.8580210910367965              0.5099451362870187
H              4.660959578840095              2.5188402999682853              0.3808910143783731
H              4.081500286213519              4.1188593680892405              2.6130102668870463
H              4.0199789509338855              4.449993361261747              3.195905393099677
H              2.5398496585154766              1.3314908033900463              2.7366120400867935
H              2.63898262283528              1.9700475006588594              3.1810778374808484
H              2.519550835457618              4.1194623609765095              0.2697388942940451
H              2.276564025430572              4.3180487355028              0.9176147047720928
H              1.6221300146722175              1.8883908637058795              0.2626358225735286
H              1.469096577270284              1.4384367721026734              0.8912474006226325
H              -1.1479102186297752              -0.03849392562881713              -2.0895434063111984
H              -0.4172744856797885              -0.07673147358101441              -1.824622276800526
H              4.456581068963942              1.752548277150226              0.41232950376469757
H              4.701433949268537              2.3756056423693033              0.24802984436779082
H              3.6505112050650563              3.936993690045386              2.9659565359763356
H              4.078642056934436              4.493517920423814              3.1551503215996464
H              2.307661785325482              1.610721014097371              2.8811200740136362
H              2.755740540244207              1.9316145128241435              3.410373915816442
H              2.623854272729084              4.289304072933574              0.21471028500863226
H              2.1415792114619476              4.065025402723446              0.708672835529493
