72

H              1.0325891057451078              0.7203661424499409              -0.5705650250917154
H              1.6335414103297525              0.7697298314894029              0.0021231606802725794
H              -0.9985691767826316              -2.132462100725191              -2.188115141798668
H              -1.7544885591393398              -2.3345502060367886              -1.8667278986530547
H              4.120678684112187              0.8645857771362093              1.298791917692619
H              4.456456673812783              1.4162986417320051              1.0556532180362108
H              3.982393327547602              3.725356590726689              2.8039899444017724
H              4.256723953872874              4.226983268858396              3.2167183440818334
H              1.280769484479637              2.058851829807234              2.8787067330226344
H              1.5708658180132882              2.3832854860808848              2.2870836745596757
H              2.6144409711829812              4.312049520172897              0.0024025534540297096
H              2.0078118176346056              3.933158555092593              0.29075022140176965
H              0.7748018728159911              0.8465629478605154              -0.3968357128050792
H              1.4065328763080571              0.7817645083724266              -0.039876663675651625
H              -1.0118955178459397              -2.2179593964529696              -2.004774308654631
H              -1.629548867217365              -2.1187128104592845              -1.9147293278116884
H              4.073433095810182              0.931857600367893              1.2365168924078698
H              4.161739077533749              1.6251181370371148              1.0739305661114062
H              3.858368455906688              3.6469780602544577              2.944958743121807
H              4.205183476254082              4.255111304976463              2.958217268723628
H              1.30649474926078              2.130441534667955              2.998571704970412
H              1.8127442589684912              2.1900556155669095              2.2765260320810414
H              2.8874886174652987              3.8893774861704173              -0.05817913210723054
H              2.1207404796944846              3.693100600001897              0.01396987386851374
H              0.8365684966098328              0.600208496260848              -0.27627812350647324
H              1.4538299499685687              0.975341961680929              -0.4762741381573643
H              -1.1426188045885683              -2.5329959256154284              -2.2454049068938784
H              -1.6933475997630623              -2.2041489435472412              -1.9691591455321658
H              3.6547416504197354              1.238052221724149              1.2942497480807935
H              4.266502650108033              1.3699825468330729              0.9987698662118356
H              3.5317259345143754              3.7796368068479356              2.726225545458141
H              4.173679278179964              3.988611156344483              3.0730615403596455
H              2.042585520540293              2.054247220846681              2.5955010197263606
H              1.5634841623794522              2.332476461772443              2.1393001399266938
H              2.8638767731610595              3.906854785180755              -0.1039883662624418
H              2.250515141138613              3.9443452400182193              0.3880857144328631
H              0.5779752614141415              1.035284532659266              -0.30984846457253756
H              1.287088374007626              0.9689207622036836              -0.46614720464601905
H              -1.0768654489322596              -2.3137668135781104              -2.237605211531122
H              -1.7872699692032323              -2.6862288479227283              -1.9315701464077917
H              3.5188529531048887              0.8428374599683294              1.3079908310827408
H              4.218937127691953              1.2940185082859021              1.4179124010486632
H              3.584406002011813              3.694993431783657              2.7757675889902846
H              3.9968412851112967              4.077802446054558              3.221149770251877
H              1.7086800534548214              2.1173635006411358              2.849501806645185
H              1.302072362798135              2.158017908478207              2.2836908845579775
H              2.5294539292464027              3.797841947666193              0.0071171548546115
H              1.9104326820339022              3.7954385223402727              0.4064907435006778
H              0.6595083691880704              1.0863887181568803              -0.326683331728555
H              1.334761265450341              0.8056234505219737              -0.4955207699689694
H              -1.4440504180037796              -2.291438605697702              -2.329624457845645
H              -1.8890238276526259              -2.762480925859361              -2.0061943590091365
H              3.7516460184110487              0.909008327853802              1.4454803535798002
H              4.3338295270144975              1.2336627977811374              1.1254625559070437
H              3.6014230304563353              4.204084971924595              2.8201355108354247
H              4.273456468745984              4.300486336884916              2.9258897654087477
H              1.8710439778355892              1.9900740083211998              2.828268731690136
H              1.5469716426233653              2.2740551463345255              2.200792034112572
H              2.48945893090972              4.073799847484334              0.41426570959353914
H              1.8111774738483764              4.001897315418201              0.1581108844095898
H              0.7208205814507219              1.0077738248454338              -0.7635235573782978
H              1.3640572837750038              0.9893727664167726              -0.3382949687095869
H              -1.4766615218158952              -2.1215124737342648              -2.4030026688551027
H              -2.0634394542207177              -2.501654092483028              -2.029703872001234
H              3.772468385409128              0.819848842352572              1.0863480483082015
H              4.318362706773549              1.347188932986236              0.867218475220518
H              3.619736658029413              4.005519088506662              2.8807159221606082
H              4.218091140760693              4.271434033550037              3.2011716198913636
H              1.610687978069726              1.9559601320504512              2.8788839778941258
H              1.4205699933188405              2.4348035560118655              2.280089999481979
H              2.492543424288775              4.263640530555946              -0.00991527312988396
H              1.8527087665777626              4.001690743321316              0.2671059022729417
