72

H              1.9305194354888542              1.2454988093061836              -0.3407498669371805
H              1.29370161864496              1.2707664345537506              0.08104826378091767
H              -1.6105888323252464              -0.7949251723206969              -2.331554102514787
H              -1.2031541289484908              -0.7582306915551836              -1.6566864085116797
H              3.712410251602466              1.7246166482320606              0.8149358150162745
H              4.358230480929873              2.0497035288977457              1.0018499058023251
H              3.6602012823199974              4.148792220636047              3.1472996529896666
H              3.9317201291957016              4.201323574419592              2.4926051801733347
H              1.5001858255502316              2.053978386188603              2.615266461878155
H              1.7594812976776373              1.7246388202984095              3.236177128017833
H              1.8786919545620289              3.932014921754712              0.38028195962601424
H              1.353883588579936              4.007560431052256              0.8604196335854609
H              1.911484947940186              0.8933772910270221              -0.3496436505521472
H              1.3886659371464753              1.1982994251896146              0.06683966895591265
H              -1.8759610881659539              -0.7138794778784184              -2.5251453629414415
H              -1.333966045688808              -0.814275065416837              -2.049481146662152
H              4.021598467815432              1.6391749095853803              1.0426669544094642
H              4.446881586355999              2.2440984575541747              0.8976493239930666
H              3.602442147128085              4.715403304852123              2.948464597822457
H              3.844650894119069              4.383410184917424              2.343180108132946
H              1.5993253156362441              2.048667219431804              2.3969919728977795
H              1.8950197584216792              1.8355916246929092              3.0857121660929443
H              1.9605274564044386              3.700859547991508              0.5579864929692487
H              1.4755866420437609              4.246368295143369              0.776001481798299
H              1.8181737678348617              1.2290477257216381              -0.43468099373376085
H              1.1167489168717977              1.2167288729616643              -0.2623123650623898
H              -1.7907059597062167              -0.6299858383729263              -2.6221618696191467
H              -1.1707834100084389              -0.6941108257850572              -2.3226553720365946
H              3.941114254612451              1.7555658894625215              0.6463005074711612
H              4.363412649556005              2.3409120515914665              0.7164361710811368
H              3.606374250520275              4.495520813844805              3.1067043264430443
H              3.7968092473531345              4.528394169180684              2.438165302878022
H              1.486546750586045              2.088309923481366              2.2922049200621935
H              2.055583353394606              2.1063899251305434              2.7761754003738703
H              1.8096388162294554              3.7329014692361504              0.2973549466256556
H              1.5062717267705714              4.158949809136184              0.7862250167376308
H              1.7477606292241883              1.2343595085042565              -0.5804458272200923
H              1.3300124815238688              1.2829349570585886              -0.06310426729045304
H              -1.4646060230622735              -0.4362838592239464              -2.3525867033363954
H              -0.7437139683287494              -0.8471528424308061              -2.230247785097856
H              3.955814220955661              1.821700824741674              0.6550563442803077
H              4.289140496482878              2.4462492756774266              1.0633121072389167
H              4.079061774520368              4.068240518077058              3.1320921934618378
H              3.9520811414496184              4.559388867091383              2.6208974463564934
H              1.6043877121359578              2.1949262153235023              2.3118559140763706
H              2.11695185954359              1.973469404378807              2.807026788766873
H              1.7065437578678428              3.6973793262663754              0.2906449209316472
H              1.7280317762236344              4.0224546851240675              0.9541771133157558
H              1.4917958026126086              1.3835402937153427              -0.7059796647678277
H              1.6663671812271763              1.3118627520142523              0.07827504302210228
H              -1.3946259273186323              -0.4623770402983521              -2.158017574286899
H              -0.7650342854718172              -0.7861240402409572              -1.8831033434831652
H              4.57601041078599              1.7601151306022194              0.5252562198868997
H              4.354788446682943              2.4504871535752812              0.7501766546249694
H              4.175007714866115              4.1899603771837075              3.15698870831338
H              3.924182150903562              4.219504261867214              2.477637145103197
H              1.7933243290888174              2.392996547076453              2.632289841037052
H              1.650503710961552              1.666787433985936              2.987711131699981
H              1.9308152636741989              3.712904656926649              0.20710717515469806
H              1.6351513447797135              3.9578251120864207              0.8833244454373365
H              1.7738264271587563              1.51596673770905              -0.41514620091188703
H              1.4306248523115392              1.0264446826117137              0.05587791290704892
H              -1.5421646895810193              -0.5421939492352006              -2.3265155452596367
H              -1.2366686156109865              -0.879855884545644              -1.7974196532293398
H              4.03286927365645              1.6855403323183813              0.5189746015323113
H              4.580916184483356              2.1455046558781397              0.6983359582001563
H              3.8208855936144324              4.032211956596989              3.2916634316532347
H              4.0104351390431665              4.189328532012917              2.5894925096414996
H              2.0280803751405556              2.164812012474022              2.468834534787979
H              1.556430846935543              1.8598142538606555              3.1355450670262783
H              1.9491323473938496              3.8801578453995873              0.3098844111655413
H              1.3897950596398398              4.151676590191709              0.7125582479090526
