72

H              2.2477268187670916              1.4451859261848434              0.8369608592457288
H              1.6969934859664801              1.984556499500865              0.8709811770423558
H              0.35719941724811              -0.4734527571464542              -1.5935257787741608
H              0.12959296128332423              0.15005519840696055              -1.9771598938001036
H              5.281482324845091              2.3233865491957966              1.43139293185258
H              4.965636541113851              1.9639054251039114              0.8883723223611086
H              4.125422694473574              4.486108106051451              3.32862822637595
H              4.013105673591826              4.015812018199938              2.7339111391779594
H              3.237019355001861              1.2502538525369524              3.3656613025695132
H              3.1710889183020448              2.0376356530163595              3.247698929306269
H              3.0328197816498617              4.070732461680766              0.4621683930133049
H              2.755173072962452              4.82413213631859              0.5764847586444155
H              2.160782503864826              1.6835786886449577              0.6180619098900754
H              1.4768044471032822              1.8877460900628413              1.0051654584157024
H              0.3672080838983597              -0.4394035200216652              -1.8162925348405092
H              0.08639377149581998              0.14396505375871205              -2.080926331767896
H              5.653858010300512              2.444126517391705              1.338111691643485
H              5.067444868110867              2.0175387733737407              1.270789123250556
H              3.986519331554068              4.915690979365518              3.064950505007093
H              4.195571934522755              4.317138595688672              2.615257025801122
H              3.339566404664721              1.307071694366361              3.033105542137501
H              3.387493084091989              2.1486768571635273              3.1596190730435265
H              3.059386766918321              4.304855137102459              0.6894762431614748
H              2.881672542454199              4.987559098812894              0.43464378046399316
H              2.2955221241001786              1.7051902822446792              0.4317939901067945
H              1.6528937760753817              1.6786927574592712              0.6606432925541892
H              0.375308657715155              -0.4624513644754279              -2.2735205826591014
H              0.2880833378882557              0.1998738540178706              -2.140213650409395
H              5.514131023056947              2.5368666556599995              1.1765219559910525
H              4.877665672805578              2.2136555898804007              0.997988360327424
H              3.865769105775782              5.018277985456166              2.909478871915495
H              4.040099696338141              4.32191685017878              2.8672341348147303
H              3.352324600893016              1.3246113549839964              2.9772225444287095
H              3.375710175313376              2.004508137033433              3.1950764665889198
H              3.127028408279312              4.0335138311835              0.5026440469770412
H              2.8333134187069926              4.737939002798482              0.522737259911872
H              2.24685970961481              1.4867534580835133              0.931566643756552
H              1.651303316554708              1.6857092957352628              0.5321540114480997
H              0.49485782681712015              -0.620679440674906              -2.055388475495786
H              0.6617820722254252              0.17611754574179111              -2.304743769119256
H              5.5637419284297955              2.4212505792920713              1.6088621263902478
H              5.152837528494053              2.421721398328999              0.9169099906187983
H              4.357473355225593              4.7760500607112535              3.012350725239685
H              4.01179215170823              4.200329312536464              2.7806717308478928
H              3.1904956465164234              1.190975038588778              3.328675166144221
H              3.4062424588077613              1.94614234767741              3.1110597930343618
H              3.1760150093788786              4.102808892484146              0.6339037871574311
H              2.781946407401297              4.71826263095689              0.7455971772127401
H              2.2615334296343206              1.4459025147898497              0.7172584340543886
H              1.8450821888585038              1.658636026002399              1.2324399405658764
H              0.388098238312062              -0.4307428203239765              -1.6946939876496538
H              0.5240524734777653              0.08420354473330796              -2.1279060000671937
H              5.634551843416796              2.4915400830681644              1.3151713036390844
H              5.0151002019117294              2.383497132410785              1.0439086243627702
H              4.380598947721075              4.5048727947017175              3.131501826039924
H              4.228356375507551              3.9201618071627675              2.701177958513753
H              3.369984487639399              1.9168664829888984              3.4810972374078983
H              3.298009113467675              1.9568487470560916              2.730980551000906
H              3.2831631463012405              4.069722885577389              0.37077755466331036
H              2.8191578613713406              4.455179921074776              0.7957191381385287
H              2.127888069038989              1.5131500733502121              0.9645777787237498
H              1.7397095815527523              2.1343752476427076              0.8689425026349105
H              -0.029565131095653882              -0.3959846712177169              -1.6506871827781513
H              0.25228664692309105              0.051605339286059745              -2.126675639420173
H              5.4129542858180315              2.5351298382325864              1.3342117240161455
H              5.255277054197763              2.0367261470454476              0.7270846637576504
H              4.10532484503427              4.541176150873259              3.0931619325908835
H              4.2550775881675795              3.8604979227893583              2.8642598289079637
H              3.233561263590992              1.3211442767305368              3.3121290336154976
H              3.4354471549983994              2.0345164059161847              3.090701874715775
H              3.131328251938715              4.0493864612533              0.3524542291175582
H              2.8142503120197153              4.553745519026926              0.8326820052061119
