72

H              2.4125488795962515              1.5766567897605888              0.7991634338191393
H              1.7242290818470787              1.7177931823497414              0.5595653200944679
H              0.9723063760432917              -0.807162745630143              -2.1022945557294905
H              0.8617339263956411              -0.060590404795725764              -2.0193172263930204
H              5.3368326840782085              2.5737653176731285              1.3940921931338373
H              4.9676090477801775              2.0177443224122507              1.1028607474289167
H              3.992632221348576              4.756273045087891              3.1777033879688346
H              4.286209744885307              4.347812883569737              2.5871015815877465
H              3.1945885753361285              1.0353296702985404              3.698398024316587
H              3.263339281028492              1.7135273143833163              3.334700199862767
H              2.829712935191858              3.953853571585121              0.8021207957032306
H              2.8070689592511027              4.508310089483743              0.31897976221372426
H              2.2054553789960423              1.3935609262591329              1.029652358828602
H              1.5206987808857038              1.7119414307376912              0.8576811240812912
H              0.7609382728558185              -0.6314100652165354              -1.642911959767619
H              0.8453816631962352              -0.0463203742474986              -1.9625795007290852
H              5.450711653622269              2.635969643861391              1.4404837784006124
H              4.9463632438685785              2.0251760923010487              1.29925676137647
H              4.2567879106267785              4.651481873099556              3.2233064320666753
H              4.50004310771262              4.236959351424829              2.7108302538731013
H              3.4953774680726064              1.3126854284072298              3.681321156312953
H              3.2677253287254033              1.7964011067672427              3.160491506131691
H              3.042410643801062              3.8995062810939576              0.4498543789627816
H              2.8849762393804896              4.552136761398374              0.61202572615818
H              2.0435451650977368              1.327057561136602              1.0488279724408431
H              1.8975259297442004              2.0521431305425675              0.8768179630455448
H              0.5160643541576982              -0.8101406739880166              -1.5940443207193542
H              0.5119739370566386              -0.030171780076050293              -1.8489968306767937
H              5.075536866761687              2.674758309600767              1.0605129160641276
H              5.0339202427562455              1.8921724620027702              1.221524713382325
H              3.9572757122706412              4.576721854369941              3.1971417216172084
H              4.544763692834884              4.2881869155929015              2.877440204396545
H              3.553746733694522              1.2628848964789103              3.504289661243355
H              2.97295458752451              1.6973284585994575              3.320397055616798
H              3.229688209262357              3.8727991658163865              0.49199098641340955
H              2.909159044753434              4.506999442741851              0.5092959021338054
H              2.160761581312965              1.2615200038830585              1.0959811400051038
H              1.7393220524059734              1.8165347330072097              0.839767083239075
H              0.6662141597876533              -0.8204784202316882              -1.5951208907577066
H              0.2861356026587858              -0.16339249827441557              -1.8649704897058996
H              5.172386972325209              2.4421372496974887              1.4701802087186402
H              5.206029800118359              1.7027927078675567              1.1808317673019104
H              3.959705970682578              4.754629867818399              3.368086609681602
H              4.302561886109356              4.4143384782748925              2.839523637855656
H              3.074132381302846              1.2296888285361849              3.245798907000548
H              3.0652529637410337              1.9262937811674015              3.4872882838774437
H              3.058421068038679              4.152248402352059              0.7669653296719047
H              2.775070656520731              4.609334033401433              0.2345526957484018
H              2.488194553727821              1.4790000536383439              0.8519590925828877
H              1.7931409272029915              1.7420355073729847              1.009424739305443
H              0.78817415159224              -0.6906003463662984              -1.8493965434788429
H              0.1453255133997065              -0.3108304905351457              -1.8277727221169273
H              5.346355090135359              2.4428182787714277              1.0352984393050755
H              5.202418480471359              1.8940477164954412              1.5804966699092744
H              3.8190707828160804              4.771201912770563              3.0540961316778548
H              4.453332320136279              4.742456936912529              2.7469654825902294
H              3.4759314601846403              1.6987486826987293              3.0081310089696043
H              2.8895926822630686              2.0561540481548612              3.3002100998620714
H              2.942819517205228              4.205148239457635              0.6615001923374312
H              2.785614628176105              4.757358092588106              0.1688010772989788
H              2.380446702827428              1.6420303275415347              0.8370533887981914
H              1.739495824800482              1.4970044951794086              0.48574724695313315
H              0.5787640338652844              -0.7428257168837543              -2.2246879448704897
H              0.4004990926785845              -0.040226670771758385              -2.0387557723367227
H              5.359488063936848              2.565543861502288              1.2056844262873105
H              5.063701307085219              1.9143740505841655              1.1247854017070518
H              3.687187193546391              5.029228873508227              2.971211569796063
H              4.235479789172473              4.578809066941413              2.8153449519106317
H              3.314656172655159              1.2747645649312036              2.9752551619338554
H              3.3161393854314762              1.8065184844587978              3.4947454687419
H              2.7394046920278132              3.958509794515418              0.5841582635586939
H              2.692810553363184              4.668041678308952              0.32438927822545427
