72

H              2.2389361347947063              1.5512853263263293              0.6200729463752421
H              1.8159234355402851              2.0694537852659014              0.9396898766976112
H              0.2716632619055286              -0.4136529360094331              -1.682448505447548
H              0.10820174838933289              0.16020417330592063              -2.0960160936446663
H              5.223084365523492              2.390923768528836              1.4919905413907297
H              4.8307434212114835              1.9676945660340126              0.9805623257229236
H              4.08626702832028              4.408515758321575              3.258645510252407
H              3.997772261433067              3.966970043438609              2.742368481314646
H              3.2620483955960307              1.2645083262452053              3.372015710850171
H              3.239752287750425              1.9357152733612981              3.237718581703502
H              3.014029516709545              4.109824600491617              0.5388919846976369
H              2.737620747450465              4.720593222379465              0.410052293933215
H              2.076179425394054              1.730159366860742              0.6926178075606946
H              1.4503041055655868              1.788372194521923              0.9307497286909129
H              0.4561517849189483              -0.35376447063720934              -1.7646111149943213
H              0.17567754832204605              0.3348802939916652              -2.102613400833829
H              5.616105570194818              2.440043954582796              1.3547797599773954
H              4.943130703057414              2.083860592154594              1.1438441380305566
H              4.172147048392418              4.8498632219753866              3.04025836964884
H              4.092343765561236              4.25797053085506              2.6251944032640426
H              3.393324702430628              1.287753593440283              3.0974953833871854
H              3.419923652947152              1.9411595421188743              3.181442466947853
H              3.0291324875754233              4.219982697066531              0.5663740351027615
H              2.916999125791395              4.973582876334278              0.6822180130726171
H              2.2711197698812597              1.7352170624090726              0.515446183666283
H              1.477483422773699              1.8173607691253741              0.6998301292371558
H              0.38890645344443076              -0.5070645970713339              -2.170430312314405
H              0.3500654748244585              0.31147401852139867              -2.0010884321507905
H              5.542376297516097              2.506916729066377              1.1500414889643853
H              4.860702943635459              2.2558026825654593              0.8945113718635839
H              3.987289394483189              5.005448201182397              2.935305172948007
H              4.017143353136964              4.243033803154539              2.908003216361805
H              3.482224609038958              1.3617791967211037              3.019038258816711
H              3.3373358143434384              2.1165565032038263              3.1764410877176785
H              3.1970858964390407              4.116938110630782              0.4012550677335047
H              2.9439328143936647              4.7610276447569975              0.6445708164843437
H              2.324291346060704              1.3624036920220801              0.8535240702981088
H              1.6779630941385921              1.6398153381011091              0.5967493792674283
H              0.34902300626822014              -0.5930220519498332              -2.1570055030916255
H              0.5189285381799915              0.04520347237751522              -2.3020649808448743
H              5.49602706523091              2.449947654348324              1.6898026365829573
H              5.0935151016938045              2.4004879472718037              1.0898193634616398
H              4.294569046982791              4.8855787390809935              2.9592321535384585
H              4.019803008822696              4.161245339936002              3.0154991972541243
H              3.013420415370538              1.457279902019502              3.1779371996921584
H              3.4788586466251252              1.94790596125956              3.028952516800795
H              3.3258151496430646              4.133948571641679              0.5554952114403641
H              2.7869192003230197              4.637254386780113              0.5843008099922128
H              2.3927204804227937              1.4824074593357393              0.6756856264596335
H              1.9339944339540753              1.6788972040998609              1.2628950467229751
H              0.35455256976745414              -0.5078801256677093              -1.7012780299897587
H              0.4019255579049146              0.1003144483875964              -2.234626429271672
H              5.745065441294047              2.5472761421669787              1.2423782192176522
H              5.034023280366553              2.3332804150911692              0.9122396990615357
H              4.314727033384115              4.55185247991352              3.103421861912478
H              4.318037796652341              3.9827554845820803              2.629061070455033
H              3.2524887203313724              1.9473618812573725              3.45354687231547
H              3.203716758207219              1.9204521538591472              2.722347303070465
H              3.2444570594917956              4.1118284723772165              0.41702054178056686
H              2.7827170621675443              4.475700970705448              0.855803053556014
H              2.160032830875958              1.5648074855041345              0.9588552977157323
H              1.7215057375997624              2.1149764035713683              0.8619028157594584
H              -0.14475031474415043              -0.33065036406515186              -1.5911820510714316
H              0.21788175077204006              0.06467951818660998              -2.1623224875754747
H              5.422656291299678              2.3554467354006547              1.257123282908581
H              5.275630623573672              2.179244504255812              0.5663824441896325
H              4.111196443830634              4.486276885838536              3.1633180511134937
H              4.16692355562169              3.834672117029709              2.837412102144068
H              3.3299128234999094              1.4451353534295455              3.269971184423875
H              3.4108461736069335              2.155526759942149              3.124771431455277
H              2.9640316057473055              4.125810735890388              0.3436656140456507
H              2.7086882098918763              4.60007744843847              0.8159935319668168
