72

H              2.5855204866152173              1.7292947184250032              0.733273744635347
H              1.9470040333873178              1.3556711135440926              0.6691370577915875
H              0.9573119121256376              -1.0703375670676105              -2.1263508336474257
H              0.4155537806158521              -0.5955801121338046              -1.759354348388984
H              4.731870056401325              2.529857057633589              0.8669876648900067
H              4.572821697397689              2.2042501641427963              1.5139695625985792
H              3.6357290506898563              4.637628206500152              2.8260156735400486
H              4.393688925728205              4.6243516363668995              2.9673960472157646
H              3.449014619681086              2.0296323633852666              3.4190899317677212
H              2.829777409655741              2.186491909404904              3.885264893071222
H              2.9041685516200397              3.7140668522148936              0.4705052327071101
H              2.7515859663020326              4.318646670752054              0.05073643786816964
H              2.350970006853167              1.3795609913321147              1.0883389434817548
H              1.9860369095692603              1.7743637856732377              0.5959947784847656
H              0.8356922447616771              -1.2476058451590346              -1.9710270734123632
H              0.6279422574075695              -0.5798600491143298              -1.8088147090999496
H              4.6496564525725335              2.675271222401807              0.9888004984972246
H              4.890982434099063              2.0460799549503133              1.1713408289497913
H              3.6948077198327596              4.45553127284959              2.934845598684199
H              4.485833207720614              4.504961009046552              2.96010777683517
H              2.962887261263994              1.5355033858120712              3.5718470123310673
H              2.9414311365956283              1.9827808350816425              4.147359107160142
H              3.0153946082813343              4.045309512787457              0.8582333215672264
H              2.732335169091291              3.984402542752847              0.18042960661106444
H              2.4060261134097796              1.2718746162862644              0.9332796015713696
H              1.7959299182693433              1.6111108209341567              1.046911963436425
H              0.8616035640724847              -1.1169444834207227              -1.5741241992215766
H              0.3681421643204252              -0.5810008714150388              -1.5792448730909543
H              4.593346804690714              2.462638839469842              0.8514137300508442
H              4.901210429706264              1.9394947970346594              1.3537991898359045
H              3.949391683067442              4.147876572261384              3.1994005780206227
H              4.465709996355671              4.580413829482823              3.0307023100882793
H              3.0531864420189363              2.007665979014792              3.5279331617667298
H              2.7148314246013965              2.293723943120218              4.0892627893587665
H              2.7760227012303202              4.111136299772349              0.7528067259474989
H              3.0275588152663304              4.011682844527586              0.06752108527382461
H              2.3104133253325654              1.5503214580401288              1.3803467256761277
H              1.8782647889968207              1.5971094412050792              0.776707659825201
H              0.48073713374771565              -1.085409441044122              -1.6856335289675592
H              -0.02936493937114652              -0.36260563118851447              -1.599725866739724
H              4.454767862980265              2.397039623324637              0.8299176235541834
H              4.891976815576249              1.9275302187113212              1.2994861321649438
H              3.962650475231719              4.374216654773371              2.899446653316302
H              4.301189272526394              4.952746848921855              3.1364714011353394
H              3.274383738233473              2.415659153744738              3.351704475283757
H              2.9470800858107618              1.8538584886819887              3.753345629613631
H              2.5692057725422077              4.107214125703307              0.4791684892358046
H              3.2295303860531708              4.3299556218535145              0.2925203351003781
H              2.4607496320071856              1.3219308399142908              1.1056726877430763
H              1.9546799382156723              1.6137737703778399              0.74559730630553
H              0.6501896826290511              -0.8710808029305204              -2.0069493649140258
H              0.22658415494512696              -0.5152891893989696              -1.5986996967226317
H              4.455593295444775              2.1794400149659534              0.6952030674658483
H              4.798675288822845              1.837195826729777              1.2455956979932772
H              3.4786952371563102              4.642225126922744              2.9125068441054225
H              4.189475425166569              4.844567969017827              3.1255668454301517
H              3.1013224355967166              2.2499388938961125              3.1301730471454308
H              2.8858383875172278              1.9807813247754729              3.7428250754220938
H              2.60451284650597              4.1223754147278315              0.6040647843333214
H              2.9725481422807856              4.202714653557989              0.01503844036985001
H              2.516328291312697              1.874882794724304              0.9017479503477925
H              1.859489069371627              1.697824283875536              0.67760771641974
H              1.0133094804554128              -0.9676018696578527              -2.0192350483571895
H              0.46354549567037157              -0.6562089270744079              -1.7386416754900764
H              4.779244525790574              2.3134581545166775              0.9636159751442971
H              4.975264290560047              1.9237284849396423              1.4769633936181816
H              3.6173456618599635              4.845006930113252              2.7993548277325107
H              4.335155951308364              4.713473656039524              2.8746158723652044
H              2.9662325422879134              2.121856051747121              3.20463657848831
H              3.0387727590592797              2.2350354381780804              3.971863209027634
H              2.7874971947024165              4.040120813775399              0.7109512444924971
H              2.864979416672655              4.365715444948724              0.10435082579156914
