72

H              2.1082353117268413              1.4158927606176874              1.127195059629693
H              1.5917189744487532              1.7083367677859358              0.8085864764600414
H              0.3963962517376974              -0.5684000561413352              -1.6211973106343558
H              0.2056470070548377              0.030445753880204478              -1.8793695431477493
H              5.628483465583551              2.470100447298289              1.2927888904979032
H              5.269797362017964              1.9954600677401393              0.8808315606389735
H              4.074497281936718              4.854536805867113              3.160747055456259
H              4.279229771762367              4.252743146218502              2.8087509890370144
H              3.2183616344153356              1.488206461215499              3.130419804301134
H              3.2510393282467245              2.1988518641608654              3.106700340833466
H              3.1577550130309695              4.242175123896378              0.34034657785103467
H              2.9570716444463074              4.690271080250758              0.8675151125919612
H              2.3312803928430537              1.4853889972910048              0.655180274369334
H              1.848659667001292              2.0185852226324963              0.7915776252222115
H              0.2654441562801475              -0.849655668771019              -1.9770694829675106
H              0.0028635632652379106              -0.06355615981305214              -2.1227692516345282
H              5.491050587817339              2.5575534272799407              1.2989655647991218
H              5.219106379309919              1.868835523406099              1.098215407145164
H              3.711120126142619              4.817537568388997              3.0778658877543847
H              4.2514385161266794              4.3715852711388905              2.8205942488827604
H              3.0866269550890464              1.4226213153641676              3.1305049879896543
H              3.249253632727694              2.174570867896161              3.166776204935527
H              3.116613423170915              4.2688753951922935              0.7310947647912392
H              2.701583819196537              4.667606963162435              0.21602091860205735
H              2.469762527899466              1.4931736508539601              0.5903348456137342
H              1.769297690954818              1.5118562694787638              0.8132657182037872
H              0.4671614270769871              -0.5796501188427466              -2.115951304054896
H              0.24470181008027522              0.057702147329306286              -2.322589556891567
H              5.562948743116656              2.5024633459617034              1.4689285265994887
H              5.077927552293508              2.090632822741116              1.2413997798506884
H              3.946584672235153              4.849525907055735              3.098579068298319
H              4.151585644091036              4.270519598584097              2.5816932346465657
H              3.047765906733975              1.2471429336971154              3.13073553450414
H              3.3955132216736272              1.9339174726957344              3.1921224608951113
H              2.9000201846676994              4.100470965453083              0.7885922382009734
H              2.593850663008588              4.668062763630443              0.3467187342328471
H              2.3068450173182007              1.7653510599220255              0.7978467515990514
H              1.4883269360628453              1.8799632744065566              0.7720672145897548
H              0.6057384200133696              -0.3813890368597741              -1.8274875649389783
H              0.6269193939121833              0.21184444348307196              -2.1122908914068157
H              5.652338331671252              2.4963711682388063              1.1552171439900936
H              5.105262434558023              2.2439723987755795              0.7652981797205146
H              4.128035309328764              4.551828590264823              3.0890678810793104
H              4.218981426722874              4.202275859566157              2.394913408273205
H              3.793084136716701              1.3112019393527623              3.3667015572264742
H              3.1464664238551165              1.7265278030618227              3.268121573178052
H              2.820927201159335              4.046805069289871              0.6236757588947015
H              2.831844036094496              4.762471848332805              0.8400325443763149
H              2.0365928849791364              1.4400287961305922              0.816361943204323
H              1.4506013398913011              1.8698674710121466              0.7450368079653465
H              0.3952163752352439              -0.43128591790330956              -1.7497785121516847
H              0.7177108453749541              0.19624023078069242              -2.045895162831186
H              5.381792987907173              2.370067641085916              1.5427231394496128
H              4.904871480817278              2.238154909014396              0.9962878847773066
H              4.296717181899988              4.610078498868122              3.146036259490064
H              3.9412922596523523              3.973244240386557              2.926615738194375
H              3.4853188876514873              1.127347196591209              3.501712918710613
H              3.4875977356516876              1.9033528722356252              3.132852240531456
H              3.1440086756852392              3.914130558416186              0.4197445630821266
H              2.900786171079882              4.630937911364026              0.6047116687374035
H              2.1420037874506614              1.3237592172562347              0.8559276706388205
H              1.6822952608175064              1.9367981998397232              1.00992887328876
H              0.5950986254550485              -0.6233571731401325              -1.7190982374555637
H              0.499901167299603              0.10086960121786939              -1.9995939897199468
H              5.482797115888466              2.6460227813029134              1.4499160225236896
H              5.042168114497546              1.9897586331326267              1.4154500063003648
H              4.274291142529132              4.729370751476408              3.1283107026673056
H              4.304682617799675              4.0953582704494735              2.7378775131153983
H              3.131767803035022              1.1796976900108362              3.5226250925489575
H              3.3166873962098955              1.8291799151100234              2.9702946935449708
H              3.451268295201103              4.025180115784981              0.5225490492246351
H              3.0540544907677574              4.6183776133242835              0.6582778817395972
