72

H              1.7402791219657565              1.456090245062045              -0.326790539676281
H              1.2456624922590929              1.1109232405586522              0.11381153916538711
H              -1.5617098096953779              -0.4285256213499862              -2.524778203213421
H              -0.8892174564173962              -0.7307134123600638              -2.1736034549108667
H              4.452432789309972              1.6880261469964832              0.6053146366845483
H              4.596000653084773              2.3319275215418127              0.6152950413484981
H              3.6660903622063192              4.428578300922531              3.165145788722478
H              3.841112728802823              4.527413762888345              2.512498024499548
H              2.133755117974659              2.0996836022580245              2.442162103089083
H              1.8963325485907265              2.083876296754191              3.182943151008473
H              2.1698304841134646              3.740047936656094              0.49346413626678776
H              1.5791570999476507              4.073901587001683              0.5771213096985207
H              1.5970362798256859              1.8362938638524595              -0.33246047443494803
H              1.2161881919231565              1.2603943049759911              -0.11274643337959347
H              -1.591842305969518              -0.5119992013056824              -2.3585563757323826
H              -0.9591456055769331              -0.7791640147772174              -2.1528118975012407
H              3.9757438216319585              1.7521491439295591              0.6850218967160782
H              4.4270975885193              2.3413619838912494              0.7820049400078839
H              3.626933647541224              4.060779814654864              3.037352491001254
H              4.039552605661371              4.4561757418452865              2.5669669951292025
H              1.7515580137251001              1.793330469148313              2.5459082106649396
H              1.9750075416418638              2.0926961006414913              3.1929609794631877
H              2.0219103638635407              4.084165049650353              0.5109625212278087
H              1.3957215947183048              4.043364195359312              0.9068333605279354
H              1.6950316830371635              1.3257413086454826              -0.40134117713507056
H              1.4670121649778107              1.3067491095081942              0.3522331432032378
H              -1.6695521888559948              -0.28221294802112884              -2.0930668872022067
H              -0.9458206195619311              -0.7097137690944059              -2.0715109829884786
H              3.9533581720797653              1.7917609803399221              0.8189816808964118
H              4.192399363046132              2.3659597748995402              1.1119902980379834
H              3.7700158663306955              3.955951285583848              2.851542633862098
H              4.092316359466219              4.479127967333076              2.520582655230318
H              1.6747668358204526              1.8063735140336379              2.5220176820682774
H              2.1297483742902514              1.8139697531798196              3.1680157820139807
H              1.8047278075932354              3.835950267091992              0.5293647372666277
H              1.6596012987620605              4.157292188264728              1.1736611577733884
H              1.6042564768449692              1.4653321160452206              -0.2500701545224389
H              1.4947266132822363              1.10819787818277              0.3903856472994627
H              -1.760140996431602              -0.31246101525069836              -2.2833275714775896
H              -1.0277536566507808              -0.41485857780605845              -1.9413321312360114
H              4.197032539846851              1.7388612771108976              0.5545745423113394
H              4.485670938739898              2.343323886713355              0.580818851253344
H              3.5617577518111667              4.166025207659996              2.9303401975564927
H              4.107907577377211              4.390067432685636              2.429959824012983
H              1.9412326777749618              1.9406585856015162              2.333154800112365
H              1.9370688183225566              1.7464397841254355              2.9880639809299905
H              1.886189943109382              3.8619993248429614              0.40447701990530005
H              1.7202614691056999              4.399526309130174              0.8261749747401516
H              1.9419025956401186              1.2978798657652937              0.08037004885677208
H              1.229876193097047              1.0098600452677737              0.19221839979464805
H              -1.4965252006226981              -0.3500416192727687              -2.4542826335249397
H              -0.9746910326851729              -0.4100589658004996              -2.0215229655558367
H              3.842975643448267              1.835700660289205              0.5749548972478571
H              4.462301102760021              2.0905833267556844              0.7797893215715049
H              3.6335247979277234              3.9687911500915307              3.290686697559956
H              3.850703688444347              4.486778366738797              2.746094794130662
H              1.9785262207838066              2.3023460165205276              2.2552977445449383
H              2.0848639660518993              1.7182572895829067              2.7347715265673624
H              1.9494565565721658              3.872082943359702              0.05982781532947002
H              1.6921949696710996              4.090811861043069              0.7653520495040786
H              1.6903507849739199              1.3189437092487257              -0.2602144120369454
H              1.427652706543346              1.1729436878236736              0.4075518014313611
H              -1.2524861877725875              -0.5957402181554335              -2.344591157536995
H              -0.667101161347737              -0.4513256870205655              -2.0719340782122475
H              4.331815407950145              1.6706768013462945              0.7866515459777806
H              4.704172139842872              2.3350875364307915              0.7161181043647808
H              3.708143513340554              4.232658759625216              3.162682682558869
H              3.915686716418866              4.567022293412014              2.5347700057414686
H              1.5880020682398894              2.084022752976772              2.5821983833537168
H              2.1968494284993625              1.8681714011695498              2.9339657054350985
H              2.0932162390721105              3.8057395986326292              0.15507092081131174
H              1.7680886042968533              3.9909777646554385              0.7744076351728075
