72

H              0.6964459161826435              0.917837107841395              -0.5052138154844066
H              1.381365794303875              1.056492643915723              -0.35170156346783105
H              -1.4302601697945156              -2.16040522317741              -2.46168778949177
H              -1.9002519005310414              -2.3831573944467204              -1.8224118088198527
H              3.6113379611305385              0.9985644252948209              1.1891519951153744
H              4.20643757336357              1.3404276735776124              1.343614604617561
H              3.5582743494714704              4.032961653435876              2.530955512881887
H              3.7379932895996073              4.001967797938315              3.211011711715461
H              1.3222733373524973              1.9248254332498884              2.6484758554353625
H              1.9452864225910345              2.3017477720253825              2.372706129395933
H              2.541269936680788              4.043860912986986              0.2690962990758287
H              1.8377373665118324              3.8710650308942833              0.42330778715519113
H              0.77539120547942              0.9373633733756634              -0.5965940145151974
H              1.1780265805594736              1.2722099195280199              -0.14609542594829464
H              -1.556794315784546              -1.9652680730992098              -2.417005387333827
H              -1.7907937699289702              -2.3771471271811784              -1.8741373433845256
H              3.4363215532127365              1.0241139629271567              1.298185429949461
H              4.097904999112298              1.3276468319921282              0.9081866599033244
H              3.6522764435018247              4.4642074650272345              2.452608354497651
H              4.025987577395407              4.11454222990132              2.9553770996290405
H              1.819784760448817              1.945519176954714              2.8700026202521
H              1.7502794441205105              2.294047882640392              2.208401241694468
H              2.371814396599652              4.108571000925163              0.4373397349652228
H              1.5614972950226544              4.191171241136381              0.4823184421025037
H              0.8251866584332966              1.2744224783515052              -0.49386156374227314
H              1.2496623274498468              0.65432512235271              -0.4759733723889751
H              -1.5872984691318515              -1.8068616715102113              -2.3062842115736615
H              -2.056244832951724              -2.2703934765094718              -2.0206983867706487
H              3.7141050993313733              0.9640345814738819              1.0108217565322553
H              4.040358931022407              1.5722357639714037              1.0509158002496604
H              3.786948411934338              4.3102615159170306              2.517822629215159
H              4.130311012873083              4.273312107319169              3.1894930201560676
H              1.5340154591195276              1.9733840730498342              2.9541035011790293
H              1.704749251828081              2.211087532829098              2.2961497826587043
H              2.4708456267150463              4.044474229259825              0.24784469311141044
H              1.7859802936816331              4.28911795675476              0.4786652988713036
H              0.7380980197869289              0.8440043730728363              -0.09224552312215803
H              1.2491973797720828              0.5200786826412181              -0.4890217178909294
H              -1.2420096301501313              -1.9717910676679988              -2.446692367980258
H              -1.728120627629084              -2.0189037182840552              -1.8027034711481
H              4.287555044561219              0.9003361756110719              0.9860871451957464
H              4.299485195078414              1.655464233675773              1.0929290825931521
H              3.8826297373554746              3.9541387159887313              2.5692586231409735
H              3.9612304856479286              4.288651860714739              3.1967402867877226
H              1.431302966110971              1.9493201079645062              3.0006205519320353
H              1.396722103030847              2.2557700584388014              2.185667070407388
H              2.4144059770385318              4.424199744428094              -0.012957137619519688
H              2.0584397704056556              4.078328952905822              0.5020506046543036
H              0.6337509506183002              0.6735099059769555              0.026115830785611728
H              1.3544965587761448              1.0180629832723769              -0.2187170646432257
H              -1.0377662465470698              -1.8292891844703687              -2.194438174631056
H              -1.5162035199582777              -1.8992495842262185              -1.7023552106774893
H              3.687766350067821              1.1438754195286982              1.1037935728706232
H              4.039277202553648              1.6972512169724268              0.8636437956845289
H              4.054002103829374              3.782392820641193              2.5111849730280666
H              4.044646892694614              4.1324136246030445              3.129111928431861
H              1.635408959213204              2.2898108673543707              2.9751797158158144
H              1.8717231955887226              1.9669674736469132              2.3449927813092173
H              2.629462206728007              3.9808111903234384              -0.0020992652860022405
H              2.0332982743119667              3.851418458626989              0.4450973767591128
H              0.8057576061040698              0.7056055438083484              -0.1787293288711069
H              1.294413678529902              1.2294263885671113              -0.3882449671911037
H              -1.1870853049372196              -2.1881470347134955              -2.105339130977316
H              -1.7333485872537644              -1.9585117915921744              -1.6766646717245335
H              3.5782953601993017              1.2557429738078096              1.046800389932502
H              4.144970772440041              1.7378886240008125              1.1131354588830369
H              3.6926441289922303              3.9098210672734384              2.479897901607484
H              4.153519742125402              3.934048105186183              3.02814202851876
H              1.5691558792234692              2.0707360825114516              2.8276001880242103
H              1.9370972029615594              2.091264197849047              2.2725060764335496
H              2.8388909797998183              4.089368336041833              0.325310030972951
H              2.108455586847423              3.980056433528739              0.33604894673092334
