72

H              2.2489825365189464              1.493974218819445              0.7102260478776002
H              1.7658805881319606              2.044980026895896              0.9085610505156543
H              0.3044835504012381              -0.41795272666644273              -1.651832630267937
H              0.12179215400010242              0.13279740985660854              -2.0354760481346648
H              5.2276394949507345              2.353186675246002              1.469291542112926
H              4.891192061088581              1.9668192665302766              0.949330358233085
H              4.1042852358200905              4.443942810145286              3.302073048337817
H              3.9972442509616917              3.972733912928593              2.732792732936645
H              3.2488252967229547              1.2401964305959585              3.390195455632024
H              3.2050878512099397              1.9860011918512375              3.233913516903918
H              3.021025760651738              4.088353276397423              0.5070374441527045
H              2.7401482089072395              4.767898395161273              0.4736988313883339
H              2.1113655427686697              1.7129235462619612              0.6619780963327501
H              1.4500637666102332              1.8279287523624665              0.9693808934106709
H              0.41994963090430937              -0.3650608023577955              -1.7912618435202452
H              0.13867257859223514              0.2360114220381709              -2.0830195333822608
H              5.6619643068178815              2.4543509505882497              1.3458172389492877
H              4.977652626296169              2.0423265004426927              1.2110884922427563
H              4.096984319309769              4.865077217821218              3.0359376294466376
H              4.138847409767391              4.305933330423773              2.6247232169251866
H              3.374520759491408              1.2889281564104782              3.065447718489725
H              3.4081704235296417              2.036986417319007              3.1702679932317563
H              3.0393156901594502              4.268554042327556              0.6202711131582906
H              2.907961590750221              4.981562335219394              0.5812013009758793
H              2.2922951361311              1.7306330728823611              0.4700983606062622
H              1.5370966240001451              1.7603592883863577              0.6771736488432991
H              0.38350306858243893              -0.528958342097359              -2.227674477930896
H              0.31912137855102257              0.3089614587033636              -2.052509362850417
H              5.547315419778484              2.530480194658278              1.1550470267868889
H              4.84654046982616              2.230184491191373              0.925161459098483
H              3.930152152495425              4.99858555414342              2.920905280241624
H              4.020642934425451              4.29907977574533              2.8942948008102563
H              3.437174839334505              1.3365983485041706              3.0013747658279195
H              3.3517166103499725              2.079967915758937              3.1811223039328675
H              3.1642696127424643              4.089942717077264              0.4420841187373601
H              2.9049860284390796              4.740035677387256              0.5914996767761904
H              2.265011532406746              1.4180254917408015              0.8795137509326717
H              1.6948252412395919              1.643296117700773              0.572666855078711
H              0.41035786848449385              -0.6395051249249029              -2.1137752897941766
H              0.589496154803755              0.12760948207170653              -2.3162110052217217
H              5.531744937191149              2.430967233950458              1.6957021732604327
H              5.111096492805955              2.417670994732785              0.9973859347975427
H              4.328556074931906              4.8463248538413755              2.983830325829541
H              4.012001192808572              4.175061908098688              2.9191885742273094
H              3.0686813652972154              1.3159962717135152              3.250609402926911
H              3.4608181050196              1.9643470558879743              3.058760602809264
H              3.2749641555038225              4.109580150527552              0.5918789028832192
H              2.7746636676638023              4.6832495699576295              0.6521026006244893
H              2.3400175890766812              1.4658716297928018              0.6865099769335252
H              1.9051365234212316              1.6614626123870295              1.2740532181761057
H              0.3774858051909612              -0.46236420385426086              -1.6948798360171542
H              0.4525989769168481              0.08083859135200751              -2.1867924935654823
H              5.719691642717006              2.529501137842008              1.2731797401110443
H              5.014068866304462              2.357096195464621              0.9692063220431849
H              4.345493342865692              4.511635802549014              3.099436380887441
H              4.290484068606744              3.9697612525672756              2.666477494797682
H              3.299287510184765              1.958382839960312              3.417872035134077
H              3.2431954275967962              1.931201529733094              2.7618111282391506
H              3.265110965362747              4.093878320902871              0.39774266637261146
H              2.7997211531014705              4.463564477653751              0.8355804314557921
H              2.150791073179048              1.5406047489452783              0.9713890047733419
H              1.7190467527056117              2.139314971193327              0.8547777085368364
H              -0.11640973722832015              -0.3603365378427514              -1.6027866178512382
H              0.23409377705900378              0.06312483742720035              -2.1583742578082528
H              5.409159866074992              2.432449669312479              1.28289319159075
H              5.283939787984227              2.1153022237292753              0.6187314469698671
H              4.102972214501128              4.506376743759505              3.133012867924969
H              4.204191972844951              3.8382540273388805              2.853182915743563
H              3.2982861230728573              1.4197620273125366              3.277154038299006
H              3.4201971184670863              2.082337558266403              3.1198921787034353
H              3.023685286096366              4.10115616756589              0.35152675733509203
H              2.7580955586685167              4.567262046054852              0.8198710899113473
