72

H              1.4798818248739996              1.6136471412414222              0.12454151004505316
H              1.5023195626869223              1.1163386614566289              0.6253914698070746
H              -1.2349265159415652              -0.062171324377747604              -2.026864173128258
H              -0.6027193584221755              -0.05600775767263026              -2.168565029246223
H              4.04183583670443              1.7848717189397598              0.523483043387634
H              4.3002471562562254              2.536939953133198              0.5743173408310636
H              3.784697704458383              3.960082312043335              2.5296876232172054
H              4.074991334050962              4.51838679195547              2.929901887036869
H              1.8958027235811479              1.7908904436960156              2.669169611380058
H              2.655888371374001              1.6222486322344223              2.852079421367869
H              1.9907403090587725              4.130021086654514              0.32175603556430954
H              2.070085578265106              4.407628909566713              1.0221581024837179
H              1.5782742376331758              1.22632048025264              0.2543804439925675
H              1.2853010592167975              1.1883985609515828              0.8957753619046989
H              -1.3265917070152526              -0.01913091589341294              -2.1915995503054018
H              -0.5689433851034202              -0.23068084312838136              -2.102214364627227
H              4.4568917132126575              1.7162566653797953              0.5273949495145953
H              4.706298012416081              2.4344646887930885              0.7030488390272318
H              3.7273316318662815              3.9024120128683983              3.0457172723798953
H              3.8737463170757844              4.600660243757292              2.840623533450341
H              2.2756692883415868              2.1518372335652356              2.3109926103752736
H              2.345437261035419              1.663820331779644              2.8801391185834824
H              2.323593719527562              3.9596815694623597              0.19658313454129914
H              2.121296481324536              4.288491223145147              0.8260604703668679
H              1.5253345471623732              1.8543032624984466              0.16965195186424273
H              1.3356453563397594              1.19710980051197              0.4286848854543161
H              -1.2300326080703217              -0.3577131686998377              -2.381492245383302
H              -0.5123629833572364              -0.154103091189952              -2.0866186115666667
H              4.451638304422176              1.6945157681818392              0.6737153767131081
H              4.88504533551556              2.2953489125594695              0.2712390904072032
H              3.487042577445503              3.923235187168706              3.008160564540273
H              3.9466099794015297              4.608094542134363              2.9245747588919198
H              2.205739603377379              1.8285953631079468              2.468844585044003
H              2.1091900210714254              2.004723010185654              3.2442222404901617
H              2.4292079209177255              3.960540970602956              0.15278849460133856
H              1.8588858407517692              3.9069780395792275              0.7064420580170506
H              1.680066382485168              1.8145006150063823              0.19808896046325722
H              1.17013163186841              1.1738696930279076              0.3406836156241559
H              -1.28931797729692              -0.3284940751499191              -2.3184250997916687
H              -0.6961536930913924              -0.39214017639258975              -1.9902514543647143
H              4.097209120975496              1.7002581864348478              0.781675672297242
H              4.540927760718899              2.3027692658407117              0.6031397022735068
H              3.533246300576632              4.128204213297873              2.9808731040662932
H              4.044261328536422              4.620416875494191              2.7429989511537656
H              2.165910752848314              1.7280791773497983              2.7059786530455683
H              2.3807391044048734              1.969998415505477              3.4145220286684514
H              2.4070444088566485              4.098369784464941              0.5033437943885665
H              1.71254971372525              4.040555370597374              0.7927652770953213
H              1.4291355836202007              1.8067336138174757              -0.0760307546778491
H              1.2061629441335302              1.342338962627892              0.37039319519776365
H              -1.6462690021210293              -0.39401742333761786              -2.303291181433745
H              -0.8871396559512278              -0.48270432324421797              -2.253687582929768
H              4.499676418370256              1.6933783860359672              0.7365640414654582
H              4.494540459983347              2.461397087351185              0.8388653334614359
H              3.347885272714909              4.404745448481386              2.8892898378435823
H              3.9614440761538745              4.478012534067756              2.428657187151936
H              1.9033785964942183              1.5908310486435617              2.7574067679243206
H              2.2730601905359795              2.055168392953389              3.1598844971330675
H              2.406072045285895              4.147332678995264              0.6283266228681653
H              1.7148233558543031              4.136048497474304              0.871710512701774
H              1.4360499390500192              1.8001364263229145              0.004331242351561787
H              1.4104791335035822              1.0846079696778215              0.203670604644344
H              -1.633233623045503              -0.15210338462464104              -2.283688384010264
H              -0.8776218019402738              -0.32701723858691095              -2.5681893739629382
H              4.1660685001587465              1.754035847875818              0.765613538393466
H              4.4078774099539855              2.4778109974616793              0.7052374770334807
H              3.460753355817473              4.103248049385737              2.6186061024229446
H              3.9961791381717076              4.627554341286331              2.7795120186656797
H              2.031974026995094              1.5909971375749183              2.4864699501187815
H              2.368130723642794              1.9615586571455923              3.0387348390272573
H              2.100967550721804              3.981483753778501              0.450489872415408
H              1.76403408053187              4.330869987539568              1.0279740347757136
