72

H              1.5631196049017204              1.60015491065662              -0.2580613809723414
H              1.225074443137084              1.1841959028847526              0.18211551789040067
H              -1.4666872202166596              -0.37671369290758344              -2.4713702190612334
H              -0.717735117311879              -0.6395456327977176              -2.5094952047816124
H              4.533452787624721              1.7410783189917423              0.722879012521422
H              4.7647252133527775              2.4488580505314506              0.7317033656238208
H              3.657076925119174              4.191934389142343              3.1371081589707464
H              3.8728781598032933              4.680788487732953              2.5857509635376026
H              1.909440053403436              2.019592487421944              2.1968872647255835
H              2.1754984099316697              2.170430430945361              2.9239385311545303
H              2.2400138933651603              3.8079088558766823              0.3688162760089447
H              1.6891155615742803              4.036064441303237              0.7660991401344306
H              1.4836416361444913              1.7829967026509357              -0.3564934699848228
H              1.5673367878997664              1.2320712445251747              0.16758451547261116
H              -1.3173984504452543              -0.2936343267498146              -2.155987008023223
H              -0.6207298649007335              -0.5131424630722334              -2.127282393244235
H              4.148043505632628              1.74002647320986              0.44743735539131935
H              4.369430067805383              2.435014451534501              0.6498588148980791
H              3.884426177882047              3.83673305703029              2.913297212258809
H              4.057515662805717              4.540225737246705              2.767349976407223
H              1.9216633332649624              1.7967678058094256              2.6158304130734296
H              2.1074575345576205              2.0499858641692215              3.241719501109646
H              1.9856250130696067              3.8715647828084276              0.33561195780660785
H              1.5630335596597211              3.9652965690941206              0.9675810928149466
H              1.5903986451708159              1.4923749911915956              -0.025034128326390546
H              1.4719675933767409              1.0505197355849825              0.5460627423799136
H              -1.5397785364629204              -0.19837429905269233              -2.086623491480504
H              -0.9739797416630228              -0.6839729290181261              -1.7809713656004154
H              4.135690719757277              1.7017080941921414              0.5859236010627352
H              4.415157728721441              2.3175240214976243              0.8666825951478936
H              3.780476832004807              3.936415281590083              3.009495536999374
H              4.172975172654591              4.3833119889296865              2.5552673122685
H              2.1268471924029644              1.829411152248445              2.54532526581121
H              1.966308509999524              1.733230981541961              3.27261607839274
H              2.086477071220809              4.050200700602972              0.5073722837716884
H              1.6228609662696176              4.363442224542187              1.0128146764755492
H              1.713752128595836              1.4438498767653725              -0.11394891512812931
H              1.2862144975885152              1.110349481422908              0.4399999093690158
H              -1.8013116602104848              -0.41386111724966457              -2.3506500344584107
H              -1.0518000132520209              -0.42613014513155084              -1.9210175467290436
H              4.1556366886955285              1.6691518485079377              0.6833125632679897
H              4.615754977545365              2.204628002059148              0.7611550318264182
H              3.3689865587008136              4.0504662053338345              3.0386950927040055
H              3.909113217157557              4.338105501186858              2.5599936517187594
H              1.7811049401723509              1.9423828278354127              2.483689646936334
H              1.9409276124038528              1.739729517453633              3.0788011981383674
H              2.0234072315772176              3.919178384586568              0.29292279361266854
H              1.6831628169446426              4.148862130649879              0.9065448680992475
H              1.7668687775209442              1.5372852063248599              0.00558202431307646
H              1.2953255048001733              1.0397363269727506              0.2906391102077293
H              -1.5391471283290368              -0.4186354774741247              -2.446230868363239
H              -0.9583138226732212              -0.28533862307968155              -2.138698539188348
H              3.8722455051553575              1.8055459063490042              0.9069809405113222
H              4.4711540344501755              2.1437743145536503              0.5546720311277676
H              3.383066905460509              4.174838118907792              2.8683732464388543
H              4.076928597771801              4.620072832360991              2.7048438398118186
H              1.8897124363175142              1.8983062581086894              2.3685052974827463
H              2.298402149105334              1.8096598328266975              3.0555156473940026
H              1.9420512151075424              3.8283515059293762              0.2492392543763385
H              1.7493277538538423              4.348162517830996              0.8530404103677676
H              1.7676891248355122              1.3676951359247589              -0.07893050547723392
H              1.0935604398678103              1.2810350080280415              0.3113720536279884
H              -1.4092222062589153              -0.4059013154488164              -2.406194441353578
H              -0.7750278347345871              -0.3762968591773174              -2.1701136973005792
H              4.148496060005678              1.7446434800578003              0.6728991485407053
H              4.426647194226612              2.4502038265674315              0.7478264504012663
H              3.601792292907197              4.3982968733368155              3.134806385075331
H              3.8121019745816636              4.577802590403811              2.451507386657565
H              1.807965691681712              2.1913165860961827              2.4330429052666736
H              2.3250366600948613              1.8214604937398542              2.8251824190632
H              2.236291959527922              3.878358485518551              0.27238562102650704
H              1.751565659590208              4.113487908850521              0.7783973379845204
