72

H              2.4253943080957847              1.5576359519633427              0.7877381640496125
H              1.6345680720848035              1.6133954833222983              0.6794954127109271
H              0.1406842567381545              -0.24638833160787332              -1.944000705384051
H              0.44980332802704637              0.31924032182288237              -2.3657098543645763
H              5.146235466197506              2.2279688147254166              1.1844993613138932
H              4.976767703603615              2.699409058069878              0.6341852170807185
H              4.533354390856552              4.657745279890558              2.9536080410617114
H              3.9432466849618              4.2079922072881475              3.098308730036006
H              3.380668378966513              1.466063874918389              3.273963592701899
H              3.238496512831552              2.1786412242528432              2.9665978097257173
H              2.9842211749920455              4.5163855703059514              0.2006233865615095
H              2.7039600549350196              4.494834200114645              0.898382637747746
H              2.3273116301254277              1.6849777788760172              0.5443448034672772
H              2.049645867151726              1.9310737833235831              1.244496229820348
H              -0.07793458888066149              -0.24129389508470334              -1.758477331445778
H              0.27863868703841393              0.08349609811772465              -2.244227152418653
H              5.376221267264268              2.295169986068516              1.1386708964023609
H              4.888447251094249              2.5814285414354745              0.6929731029866228
H              4.518467576614687              4.457955215033634              2.96856429614886
H              4.000436505625308              3.954016930660387              3.1904465311576042
H              3.2694122288152925              1.717319123954284              3.2855390302426875
H              3.2192437295656777              2.2760476996003205              2.8112404062268244
H              3.2407682686289245              4.314230546800519              0.1868463058914287
H              2.6937123479409686              4.449171214876826              0.6048110815100145
H              2.3995822277810714              1.6844544857446444              0.6052924055091008
H              1.8697307434857424              2.0345229248454233              1.0301573942971132
H              -0.2924570244755981              -0.17035826120859573              -1.7224676451678365
H              0.03916308132379221              0.1863934670549138              -2.24800793145391
H              5.149289564894821              2.330418019911819              1.2464936404834877
H              4.925382692270294              2.3148037592315243              0.5194004002713154
H              4.246548671632903              4.411834785994321              3.042416646729565
H              4.076086349297885              3.7869474045449003              3.2829912934231182
H              2.887205830943216              1.7239927412333076              3.3369918667108562
H              3.545437514635833              1.9125574474254285              3.045135576077551
H              3.0325715820733974              4.23073575272794              0.10942863037434675
H              2.6622862874597564              4.319522429544599              0.6984719632091118
H              2.239020226822313              1.8662030048504639              0.6001070971155973
H              1.7745636903960826              2.248917574645774              0.9447152773839518
H              -0.04845649747229248              -0.2603644302505454              -1.5012217435678867
H              -0.04509108734561982              0.34841376241595884              -2.0855558932455254
H              5.1067762261750556              2.2841272706186992              1.1687073684321942
H              4.749207000163546              2.1812009782432287              0.42365329953156
H              4.130559163304857              4.517190382140679              3.154440622882422
H              4.196543538263772              3.850919642467558              2.918269578414956
H              3.1622310173147232              1.4435682574495476              3.6036949105098177
H              3.302724332702555              2.0654056289425853              3.1451857586027856
H              2.7916359627075504              4.390255913672908              0.14279701170111203
H              2.83594453790631              4.637601237156286              0.8273906082361631
H              2.247537887285936              1.825310417556307              0.48754044026712695
H              1.5431241872706094              1.9712378649834204              0.801116847971408
H              -0.237882719859851              -0.26950074699717774              -1.9181118361111094
H              -0.09025240363511938              0.32174238653045173              -2.21088245108585
H              5.2176983681188345              2.272181710311845              1.3074997152090062
H              4.577374309571093              2.3068552627559606              0.9840157426465631
H              4.000936165007519              4.836897090590156              3.0346082218049033
H              4.005958165285525              4.144283275380757              3.0279450124475145
H              3.1749904993220235              1.558186302223796              3.046846419342416
H              3.509837515590156              2.2072581063388363              3.1783984717047513
H              3.0461344296581276              4.3086324375646115              0.23577627357183997
H              2.7172659116316877              4.888777686085233              0.45894185255355013
H              2.3126700898083543              2.0627070528205333              0.23220940468252085
H              1.9111792632570672              1.668198856121272              0.6809472939924366
H              0.051671237979707726              -0.3738244331286533              -2.371875247178358
H              0.10498394777127992              0.3698941434486213              -2.3499656513214817
H              5.282692919684674              2.5919374959029597              1.1174142586819855
H              4.568789785598811              2.3033423742048584              0.9362562261952548
H              4.013781012211136              4.968293379592205              2.9306913872284404
H              4.015197532826388              4.206518783804093              2.846583077663663
H              3.16269911324257              1.4460426400628261              3.279305614265349
H              3.326058382721711              1.9808584722777465              2.9309463309890234
H              3.236786624234195              4.218868694087938              0.358738260460605
H              2.6597942883347714              4.6606263050089645              0.5211657975808527
