72

H              2.3773119700324084              1.7371022697732785              1.0428337928145588
H              1.7523351884842322              1.5717050528439382              0.6560589472192792
H              0.9466489684810128              -0.6826257728032112              -1.822558907569449
H              0.789639585997406              0.06337189509578388              -1.8456626129711153
H              5.191102861810646              2.4831246105572746              1.1452580949619577
H              4.868319296591912              1.9236132292934183              0.8549635464107517
H              4.015906851620807              4.461803479254982              3.253324362561804
H              4.299037905071762              4.459700022095571              2.5395087128260516
H              3.578180489952868              1.2732999993927463              3.4869136652426374
H              3.1097570598789317              1.8795158556775398              3.4042522034306697
H              2.493911832394304              3.9515158165207893              0.6122034859826361
H              2.752966709158811              4.585946193504478              0.4221419209151566
H              2.0284277294945556              1.536065720339099              0.9500960274723
H              1.5142660272571518              2.0138335411642467              0.7330986626276911
H              0.7262337621244411              -0.682277761211068              -1.6874549841048663
H              0.8603771451080386              -0.04475860958572381              -1.880817606336031
H              5.091381932036212              2.52512533815995              1.329655068558136
H              4.89080716843515              1.8143698631188105              1.2943209316760942
H              4.002697890802751              4.776981777177365              3.236579074704596
H              4.403379596952858              4.3119814621101              2.81137888394877
H              3.6418607294411838              1.163099383357083              3.642588101191537
H              3.2385702856540894              1.6583470733006316              3.4000452649760744
H              2.9263779823965947              3.9554577479357254              0.4879478541063042
H              2.9486940840721148              4.642141851733139              0.323894891487564
H              2.234325167631921              1.1746058550791296              0.9177989582840328
H              1.7186000515091937              1.7732577945704897              0.9198037519964001
H              0.9019553148611495              -0.8278706906002111              -1.8085123255726798
H              0.6105464897678807              -0.08303590000368274              -1.7728385207684738
H              5.120267511929755              2.5461013858089583              1.20841819415695
H              4.837968975467774              1.9807499868776202              1.6554404968481742
H              4.018517049114946              4.90428716615649              3.185157921147263
H              4.51443772870233              4.388791410873705              2.973321277697682
H              3.4249740424309616              1.197220774267566              3.490664463142882
H              2.937111791606285              1.7150616358709412              3.2989768457214788
H              3.328444424342163              3.891999688516127              0.42875148159722815
H              2.9933163338054802              4.512302230326169              0.3555890390893758
H              2.10773079248132              1.5084613754365728              1.3022107314936922
H              1.7428957651668793              1.6754698809910378              0.7212223468466517
H              0.8245903551031788              -0.8752818091335256              -1.6236076352303705
H              0.3992875153965672              -0.26697070109428184              -1.7839939109083174
H              5.363009109601783              2.5992115402792755              1.234370749742472
H              5.2916723844073665              1.8705221849905105              1.1407475542425543
H              4.006333312277357              4.882639021977257              3.267846795383208
H              4.521932573735737              4.61161766888408              2.7665605465856427
H              3.1912463670328233              1.4657448067235057              3.172981241205795
H              2.9890267613388946              2.0118224856869085              3.5226649364789533
H              3.195661229118873              4.054665632085629              0.742820202782735
H              2.844148590977337              4.700727904657804              0.49643461425932534
H              2.535887689904551              1.3126682450059346              0.70307639075712
H              1.9794081861005102              1.8147452009584162              0.9385558726340848
H              0.6614478136695193              -0.9296699603634769              -1.917256305743336
H              0.11971969991222425              -0.42040589541313816              -1.8760878335626132
H              5.078936472449933              2.5444292761014675              1.0801667857386033
H              5.112826672980097              1.8596185797247042              1.4178691423855057
H              3.714445257583885              4.709911790959252              3.1208730849306887
H              4.415245797314987              4.6329392317103935              2.976882094530741
H              3.2871273049280862              1.5956517858483512              3.2424275420045094
H              2.8856473131698457              2.215471477205198              3.3092145433860742
H              3.00820832160693              4.079743622977651              0.6207496073608708
H              2.6236834284204638              4.392971881247582              0.06736718389354106
H              2.6432184220931503              1.5211678566698954              0.8800833006168614
H              1.9424279392274957              1.6183532440752448              0.7144766156787239
H              0.641365883554065              -0.8649044512633789              -2.174236757044209
H              0.3662853298776504              -0.17855719358431613              -2.1186605098238496
H              5.170542911069206              2.581495283201615              1.309476956450637
H              5.151268256224992              1.9332558677024412              1.3832714780229778
H              3.7283477726145193              4.721845237107685              2.9401464290694195
H              4.470056440802982              4.627274373987793              2.7683877525725786
H              3.1032547055353583              1.2750276002458494              3.052235393453768
H              3.239432032446927              1.749737717745265              3.5487199768009767
H              2.6326816900746772              4.000608321984909              0.7779312938462046
H              2.613367835081633              4.461712324579096              0.1853125483823945
