72

H              1.0246254366253762              0.7581365016985188              -0.34865694665207425
H              1.0870106311681333              1.3164564016716442              0.2030377041978092
H              -1.2207093256121866              -2.067943295990074              -1.9993609833779369
H              -1.9400890910681792              -2.1532615526603145              -1.6947377124756335
H              3.7285610217270553              0.9642909342747259              1.1691187647376367
H              4.159349718966799              1.4898680280876153              1.0115666220886943
H              3.857865872867803              3.885488922291627              2.66680617584655
H              4.442640761089036              4.151619667780391              3.102633323373554
H              1.5461397411416156              1.9897109828751056              2.89346766130461
H              1.6232358578487576              2.210903178112009              2.2551650567311943
H              2.5818420070567982              4.163246216212697              0.30447027388805487
H              1.8688680718392432              4.0138379734217295              0.0820830499757514
H              0.6982332747258468              1.000967118017174              -0.2216101749333114
H              1.2915438671272033              0.6282957482120762              -0.1443958046897569
H              -1.328734994007377              -2.254371133173458              -2.190246612712623
H              -1.9685581936021699              -2.183544643714714              -2.03367141544156
H              4.030063990074577              0.9104958278495626              1.1758840769666408
H              4.429796481068179              1.470235296022635              1.228656723277651
H              3.6842299981890885              3.8568355489468917              2.703491774864074
H              3.976265578646446              4.249163790835298              3.2780638992208493
H              1.1553898379054932              1.9373247545497785              2.6332767281208254
H              1.8709018917756932              2.2960503806707253              2.5108945621836813
H              2.7361343214146387              3.8824093081702293              -0.2514541504344424
H              2.073183347134974              3.878759456301924              0.07384772592609751
H              0.5884531438741746              0.6434480459383368              -0.33137497402039184
H              1.3045052884856614              0.848872697219089              -0.3321188192410722
H              -1.1028465196836446              -2.3332243930855237              -2.5245053627100273
H              -1.5800129085991559              -2.246532926306684              -2.015405547454023
H              3.9129384624807884              0.9138516723256017              1.242604447439407
H              4.374186094263355              1.4076776733755023              0.9524261384548511
H              3.4848949074793127              3.8291340252940547              2.5737738811210034
H              3.816260399680061              4.264545833652977              3.1590237345517034
H              1.9226105771197957              2.1594615647259845              2.7997479888122068
H              1.4754683097768866              2.33946289909711              2.250612460570695
H              2.581241036171673              3.9614791848735518              -0.30385524451182555
H              2.0953568581112982              3.8843376783477175              0.2932418032794898
H              0.6082399276809204              1.0243539386605385              -0.33087095381494597
H              1.2902312643398197              0.8768753557472675              -0.5694498688401021
H              -1.0454305832485467              -2.1181033485547753              -2.3126583921706367
H              -1.6823899296219158              -2.50808062414603              -2.004252613336919
H              3.410107737188937              1.1386628517651531              1.3130980715124805
H              4.0630652301998165              1.3740538125861497              0.9734103190766249
H              3.6654928896167354              3.92075421633572              2.6249215379369444
H              4.189775062226874              4.182616102821244              3.0921562096493105
H              2.0408702942696113              2.3000806681388717              2.8662199089843274
H              1.6316023555185541              2.0632724108917335              2.3985682433137034
H              2.647156813619213              3.686685628274109              0.14913087531167754
H              2.0337663654295923              4.040585696882955              0.3921215882939912
H              0.7987305863666814              1.004444221956958              -0.1881454311507718
H              1.098196298290114              0.7679599923803397              -0.7645107440346038
H              -1.2762773085814878              -2.314587514076158              -2.2930387286617058
H              -1.8449210686422184              -2.548981279625782              -1.8593254683459395
H              3.86682796523588              0.8865780813174376              1.2325603955532003
H              4.268620368038668              1.5072633078840898              1.2343092886466827
H              3.612792156191943              3.9749542465829744              2.869085003523283
H              4.286646301288185              4.15159543374314              2.9556091255061516
H              1.6509516502157697              1.902785683264061              2.8278507755130113
H              1.3884245659621044              2.248023616870832              2.2428353428886485
H              2.6059164433427764              4.385190510112893              0.3074400124538139
H              2.03629702938241              3.9977730912464944              0.5068092252211733
H              0.7740380338474191              0.9169713358671044              -0.5145495591809129
H              1.3528082722471548              0.9831644239846391              -0.036068006649818796
H              -1.3937337983220535              -2.0758746890389              -2.291962439235465
H              -1.8362235752175977              -2.4751876811237756              -1.784807325826295
H              3.710801720123103              0.8147725144838878              1.2748058228439758
H              4.241735601116346              1.274236564027353              1.0117340800756789
H              3.7916453537839203              3.8322695943108394              2.7387344003994736
H              4.258704003003073              4.172049169567066              3.2431455957266895
H              1.3630549688830844              1.976606775778593              2.8073112408002627
H              1.7723644353743928              2.3292695811947164              2.20422230631562
H              2.3904314858457263              4.363633328407076              0.3388051701852649
H              1.8310822530689268              3.868938844958183              0.3544967007003841
