72

H              1.0769128940859705              0.7344506653177325              -0.41874997758118143
H              1.3430235808676894              1.0569580599100605              0.12528889732582085
H              -1.1537455012139408              -2.090170368075581              -2.0274606911191273
H              -1.7691475957813834              -2.2154236027405685              -1.7799836162434814
H              3.881760067784366              0.8644712173421926              1.2442316373381457
H              4.325832998088438              1.5088823390708817              1.0216006101296056
H              3.9541213758715936              3.794363131028367              2.7091735295284494
H              4.393769901288114              4.182593335102401              3.1784197153984097
H              1.399819863661425              2.0131861060877356              2.938218236071058
H              1.5824121845086805              2.2883992522016334              2.2490256874680745
H              2.6001670368438106              4.251657909976637              0.1649299298118761
H              1.9140312126891925              3.986305141945391              0.19420956724788796
H              0.6910443761912948              0.9553598602290693              -0.269778339454058
H              1.345073441812298              0.6379040349529778              -0.07118450526743227
H              -1.0670752033930568              -2.2315461049309047              -2.1010268723328087
H              -1.934675070156241              -2.1455382506481664              -1.9621358214628488
H              4.094660224358149              0.8630725746098736              1.2113958262919833
H              4.322696802779796              1.6208389361800206              1.1746936876543301
H              3.7453632320167474              3.698306625441277              2.811793395256089
H              4.10803982281465              4.3276913823257415              3.142267706798806
H              1.2183641341205182              2.018523270867686              2.7586273675636015
H              1.816208141763966              2.2223204057050023              2.4872741611627025
H              2.8249960942880064              3.8571638442837552              -0.1787042197228564
H              2.123219807183399              3.7752957230561157              -0.004110714266453858
H              0.7339153550420027              0.5730757945729394              -0.3295943264623136
H              1.3731333684103735              0.9052316194245725              -0.40020553388945174
H              -1.0921471473449043              -2.475423635289985              -2.4546490489122417
H              -1.6516125236320998              -2.186833513269116              -1.9785268080170917
H              3.7487728080870037              1.0937559003484474              1.2889085190714011
H              4.3725203707198235              1.37166223038994              0.9072706563131415
H              3.4903502878108035              3.7953169307172607              2.6181899278321557
H              3.9294597212445934              4.120936377027956              3.129220293290702
H              2.0473908010756094              2.1190759573833082              2.6563442687766963
H              1.5205833253321903              2.3702883840256446              2.187151730800988
H              2.6806600488197887              3.942249446430188              -0.21439791528806557
H              2.2324519149956155              3.92566597290048              0.325702529108915
H              0.5820873528109706              1.057300511124634              -0.3282012739923205
H              1.2741683307592604              0.95450759493784              -0.5146719262369822
H              -1.1119762137949976              -2.2329673048859418              -2.229658362368459
H              -1.6318023891648525              -2.5751131670149876              -1.9955412412546736
H              3.4356172724926513              1.0213714789896324              1.300945641996882
H              4.063167776754805              1.3058421104245392              1.225659366632173
H              3.6296071106361567              3.7954632889838402              2.6752406072965753
H              4.104633702716339              4.112060776617437              3.178159819560088
H              1.912694610734589              2.249344499594087              2.9324639963951897
H              1.4573353178102741              2.073877372558727              2.295968348502603
H              2.589587698801773              3.6939637908136116              0.08370526369749065
H              1.9563177416055317              3.9109192966371364              0.4244610321013745
H              0.702964722287048              1.0765799177106636              -0.19638752338326138
H              1.1875416211096232              0.762142881594735              -0.6906869852657946
H              -1.3653654088708855              -2.307504339128627              -2.3106656466547477
H              -1.8931773548451594              -2.6951976341448756              -1.9308011412510744
H              3.8321144669369387              0.8538794350409649              1.354526336416046
H              4.335354935500925              1.4140835825724771              1.210818447562689
H              3.547997996255519              4.118404788157974              2.8772725720509484
H              4.3503966713619935              4.247849935236654              2.889769539565143
H              1.7514400817067297              1.9238608736253628              2.816004077533885
H              1.4613850124677281              2.2501131617857375              2.227320460494483
H              2.602880263724844              4.275680555410084              0.3975046189881129
H              1.8837100389231014              3.992167203523076              0.3279891122421921
H              0.7825097139093729              0.9635177577090065              -0.650236935966593
H              1.3255805127090154              1.0049046436557962              -0.21427620568498554
H              -1.5045742257681047              -2.10604111521631              -2.354261834391973
H              -1.9261926352599232              -2.474203479238825              -1.934921901925936
H              3.7352233616832664              0.8187010723144242              1.1554283632845375
H              4.267279970380326              1.2572604156471718              0.9060932772045052
H              3.6977322382356403              3.9249176156579235              2.808512516849658
H              4.223655313806706              4.2121354424647395              3.2503886978709815
H              1.4750047860251394              1.973278411905728              2.8056330525289646
H              1.6121075754008805              2.3943163181729363              2.2582801909864134
H              2.416025366070854              4.3487764753819915              0.15320499846579136
H              1.8234621060015581              3.9350527884161726              0.32934067988080024
