72

H              0.6675585653392279              0.8358945633688777              -0.45732950625921187
H              1.1577673952535712              1.3249566630836596              -0.12576491236950263
H              -1.5314287982387742              -2.209480004357584              -2.3518514183805883
H              -2.0777830590310553              -2.287519226525926              -1.7867856991473985
H              3.5924560996725012              0.9445531031153794              1.1241425542004069
H              4.18214923304471              1.3820844977975077              1.2743018697175672
H              3.441337510762819              4.045065440804118              2.5495150468629877
H              3.9198077057247582              4.036390387945091              3.191403953773864
H              1.446889607824117              1.8616379556623077              2.6690882186326808
H              1.8805078071675068              2.2912703631101943              2.2849477081632803
H              2.5645478107619293              4.049848134308162              0.29029987668187723
H              1.8409703565944817              3.8546037098149277              0.21701888374430436
H              0.6703781614141099              1.017492636858921              -0.5318153641818465
H              1.3020039145200346              1.1724593249554423              -0.1479903540413844
H              -1.5680506417061661              -2.086010509335473              -2.4642949100424616
H              -1.902900951869836              -2.3373290854519726              -1.95431320454413
H              3.5183991010198863              1.0672079420501512              1.2512355758403375
H              4.155748771447884              1.1327156364874231              0.9616283282617855
H              3.6749978386720783              4.461313798240066              2.5123504017215965
H              3.861507051087072              3.9861102102080777              3.0634154563770104
H              1.7069744246866931              1.8586496299557609              2.658407510095049
H              1.8523079078952982              2.4972894718555674              2.2534613731710076
H              2.300114764833519              4.0616840293983385              0.17084754436424268
H              1.6719457941338698              4.203283152386123              0.46864663863673844
H              0.6370812015425269              1.264782330975589              -0.4707878289074204
H              1.1310681358662662              0.6870412713360302              -0.37191009180781426
H              -1.4195376832845865              -1.8646314502981376              -2.301042068834518
H              -1.8953630193462365              -2.324652393733289              -2.0814284126757814
H              3.933120608141324              0.8179242268517104              1.021341752828094
H              4.098996016578567              1.5755028976338048              1.1787999640334972
H              3.7446659091890124              4.184035216606104              2.5310724076916826
H              4.040610725061795              4.439077773020558              3.208081717338782
H              1.483518004823648              2.042565424843758              3.140754136891165
H              1.5379237164037245              2.1372773362222928              2.3628224332712655
H              2.4620816409096467              3.9483432568606935              0.058232162368022665
H              1.7858214193729691              4.116055322178868              0.2987849204918837
H              0.7657401266668167              0.7630525705921821              -0.1458781943763731
H              1.2546178790412403              0.4238040636993399              -0.5752524543452344
H              -1.2348435889982163              -2.0368210476400757              -2.567548365966371
H              -1.710060208813727              -2.124909724419708              -1.9153830819048567
H              4.207970343398753              0.940630206184923              1.1154519532247862
H              4.38463033178736              1.6509195698610692              0.8186824812063948
H              3.747233514524032              4.0256062234349095              2.5553949367820317
H              4.074159403771387              4.396372010006372              3.1301914740127175
H              1.7498682712337026              2.1046421376365037              2.910172739776722
H              1.470541881841691              2.2013595338223086              2.27972961526537
H              2.637573300903902              4.3211212488487              -0.040500017411282806
H              2.080078484027174              4.167406128971218              0.454879918621122
H              0.7681555747093302              0.7152952052146403              0.06937599667113041
H              1.198057771138837              0.9362610636690766              -0.4592109316475951
H              -0.9705313445041835              -1.9196550071939145              -2.2250989622638553
H              -1.5043670484670746              -1.991777388879786              -1.6675884109419328
H              3.581301756583929              1.063806036938588              1.066129637210023
H              3.998336819589354              1.7040326422517802              0.8676558268762582
H              4.010263129232239              3.61651096044318              2.587398822115418
H              4.062361382426098              4.039055202484572              3.1867047067911427
H              1.6773599604584246              2.227589422186851              3.0084873365663407
H              1.661016028646794              2.083837733851188              2.2561702192264343
H              2.522330717441435              4.105927123484626              0.03172420406758682
H              2.172756857494273              3.909295066315624              0.5948768985366846
H              0.7527136258414183              0.7331681884535484              -0.14726356761134074
H              1.3795211166198784              1.1585673234278866              -0.08038261214274238
H              -1.060593695256943              -2.153439907126537              -1.992826463640879
H              -1.7583138863633339              -2.153272014129395              -1.5480256312714749
H              3.565565218043565              1.2095463296818276              1.2556071643086806
H              4.16256759957846              1.6851705505753014              1.279187026521143
H              3.824833683864073              3.7917802050383034              2.508805073128726
H              4.351468268510066              3.9705644753885596              3.0292066009023535
H              1.4343213532604695              2.069052525594085              2.784701198964446
H              2.004018836692755              1.9966406205364087              2.2658628052736707
H              2.7419842046288254              4.1356120638987575              0.5809598065461271
H              2.0973605614169015              3.916074675866125              0.31419530397499357
