72

H              0.6674037405171275              0.8981888621515944              -0.5074918766509555
H              1.3613048994973704              1.1097830372894892              -0.3057938116766635
H              -1.4698834216059107              -2.1818051099569793              -2.432167551601646
H              -1.9255106073586352              -2.365663017706492              -1.8337433783962986
H              3.6052646789936764              0.9753869532566992              1.1754340010851954
H              4.215080530987433              1.348278371297633              1.3422460906236646
H              3.5226164851634962              4.035851408719449              2.5402570369209454
H              3.7628871416576914              4.003724292218471              3.2090281972521715
H              1.3362544415229851              1.9088945446755938              2.649901540040582
H              1.934819174836838              2.3032174004195434              2.352217031439929
H              2.542403355315524              4.045747964295775              0.27437350107827313
H              1.8414976071197018              3.860952151510976              0.3785708608055807
H              0.744225365222183              0.9510304491083849              -0.5936064936184533
H              1.2072470117244833              1.2705844287962604              -0.13444115906774992
H              -1.5358142068536136              -1.967396615768523              -2.4711344975213425
H              -1.832713638930492              -2.390592117398573              -1.846855596818311
H              3.4375481644590278              1.0245055413276616              1.2953114787402258
H              4.105293851286841              1.2910632390385337              0.9083353905085543
H              3.658004047543583              4.478885067948311              2.4595292468487346
H              3.994062604926056              4.08256753312243              2.9711434356799113
H              1.8157881040628405              1.9262373379313744              2.8240348916845717
H              1.7695517258481843              2.3401769034808964              2.216469826167641
H              2.3612976793188865              4.097886917586084              0.3898936240248613
H              1.5602813144657441              4.20008287658606              0.48432779562727346
H              0.8112446319388563              1.2691389014676904              -0.4936483484954939
H              1.205242452421762              0.6752876431622955              -0.4656949354275369
H              -1.5473717567216896              -1.8036655704000488              -2.30866719805806
H              -2.04792186196807              -2.2918272686543633              -2.027871078696314
H              3.7586193518200415              0.93832526999506              1.008136492371912
H              4.042950679444982              1.57405698053444              1.0790090433022803
H              3.7798737543010086              4.29545076111493              2.5250287502942474
H              4.122052952956293              4.3060506345362946              3.1903553429795077
H              1.523322006818966              1.9939606443331876              2.9740927332466933
H              1.6687406469926407              2.1843140950736872              2.3342649765996866
H              2.4684733792002778              4.0184233126520565              0.21892595846560303
H              1.7876245556798167              4.264039086407192              0.43755970513153913
H              0.7505607302022683              0.8170834757271547              -0.10122743348407456
H              1.2424936638542388              0.48909518353930337              -0.5035453127744602
H              -1.2576398855302842              -1.9968350061310505              -2.4505424999909162
H              -1.7071341028790998              -2.0294603920931515              -1.853746395668885
H              4.293692618114263              0.9199228364093573              1.0057474116865188
H              4.331736815619354              1.6349970997506662              1.0437220454237437
H              3.8519412865057245              3.961420834318674              2.563407518971996
H              3.9794346772756626              4.319351812951532              3.1922608923193394
H              1.4881080732951744              1.9672526725822388              2.993916519365109
H              1.3947995527553267              2.256266784612688              2.1922944152212342
H              2.4505765978180025              4.418376843983001              -0.02609307138749796
H              2.0726763816353246              4.097937505232429              0.492703266040792
H              0.6486715628818822              0.677219374843006              0.04937342053757932
H              1.326463773742672              1.0022837769905053              -0.25456390386299066
H              -1.0271598445866075              -1.84078166623294              -2.1875423633553694
H              -1.4919024867568804              -1.908032771408018              -1.7018660473037588
H              3.6602659585221233              1.1375263106512665              1.0959379632744597
H              4.018887955364972              1.694288178058933              0.8556130994345332
H              4.057755392143589              3.723356049847827              2.4945300769054453
H              4.045271722054604              4.131978986002018              3.1701013100343487
H              1.6533190970504106              2.2806009408437613              2.977321946146808
H              1.8355321325915785              1.9918496001796382              2.3367885663099526
H              2.6235540750054835              4.003597738209347              -0.019966381317311384
H              2.042896404194088              3.852355525143882              0.49549129843588124
H              0.7996373883053521              0.7123846598216884              -0.16541697017199314
H              1.3089153051496472              1.2178536032944454              -0.33325922663347973
H              -1.187138951302149              -2.1804945889476017              -2.0505379396745087
H              -1.7119951207227013              -1.9973209214836198              -1.6695119206687232
H              3.5918140250662707              1.2714349214918754              1.089079842912922
H              4.123660267502611              1.7229759234133626              1.1482197164159806
H              3.716846638137164              3.884327985180501              2.4853619775753253
H              4.201597958871695              3.936170579012675              3.0203261657432754
H              1.5274401650371594              2.074597254239045              2.833335901204591
H              1.9745485893888695              2.0633259643860558              2.255828721165922
H              2.8360354739314477              4.098699125662428              0.38670191320728625
H              2.108906110037105              3.9676058667681615              0.3260954030845533
