72

H              2.175645200334975              2.215288623695171              0.2823207346289392
H              1.9540930353013328              2.0557189697969567              0.9745459346542111
H              -0.7056799039170887              -0.30597932717474036              -1.8570583711604782
H              -0.18405742402450617              0.2728764370827002              -2.1253054805475906
H              5.193911720439929              2.3133783301395394              0.9073595854706045
H              4.607871485229528              2.23007749455206              0.39042851940975254
H              3.9309010568596303              4.76519174626566              2.9226590459621726
H              4.221449875142483              4.102385619007021              3.2933889224914337
H              2.707122534694582              1.8842126316194712              3.4371535232070647
H              3.37599204827444              1.8747724930608565              3.1493307067684664
H              3.1297963907231234              4.2958527682972365              -0.0053272896224867425
H              2.5862338992941702              4.536562756152178              0.5306901185468436
H              2.4385358930398935              1.8862547048159677              0.30852328413519636
H              1.6782082686627295              1.9795260862253676              0.3670488416559295
H              -0.6652018833774429              -0.270906823475492              -2.133741009013804
H              -0.28364618571186767              0.22641765522617216              -2.3746996276717502
H              4.611608792401405              2.1433673166213314              1.1731691302807152
H              4.4742916073342              2.383576322971165              0.5536620256711378
H              3.8340341772451656              4.767686956263563              2.859408357670648
H              4.030777806050095              4.260798527962735              3.4177950498616725
H              2.6899400111455374              1.6930554763846801              3.3640549908246644
H              3.4507790668126557              1.7417918931861756              3.361355913286002
H              2.782499446421936              4.4587832056468              -0.043542671257158015
H              2.4499942976767914              4.599491578451662              0.5897403739142447
H              2.2870574678713522              1.940034513922803              0.18136037311299666
H              1.9888246909205458              1.7491035696850474              0.7889129419980648
H              -0.2445564569779418              -0.22933115650057667              -1.9588571408089097
H              -0.05629035865881959              0.2869421534302795              -2.5396204430775677
H              4.982026158972308              2.233829191810207              1.0716151975095856
H              4.3217335679028865              2.5457547141782775              0.844231974398425
H              4.260725775129345              4.958390605463522              2.8216047508769866
H              3.986517454699952              4.2443646793213485              2.934491931949424
H              3.015632376064979              1.2686647655583496              3.4699609472699695
H              3.0986643905836524              1.9044588022713187              3.0790478848870375
H              2.9339735700567897              4.502944187595699              0.12807840611802626
H              2.4845472340573207              4.820895987539899              0.6482957944348736
H              2.1977369696614866              1.9460753334696541              0.35482816711392007
H              1.9145843216458969              1.551204472344893              0.8554301176466499
H              -0.43480051864550207              0.03773344695837205              -2.0285276698674677
H              0.12788499255002275              0.3861868076809385              -2.5011135436753316
H              5.123371560567204              2.2107280187809737              0.7923458135779696
H              4.57730731310665              2.6831137523662414              0.5209266100400496
H              4.272584674983314              4.694906038674856              2.7439323872501418
H              3.9903956042911055              4.289315477333011              3.2784525234364437
H              3.067622800181378              1.34383203185965              3.014701278032442
H              3.4224880830175906              2.074931743082306              3.1598035844447074
H              3.0173218632601047              4.482194826123729              0.07109544038341352
H              2.4825761701927647              4.487981265928276              0.6176360277014067
H              2.3722939456165344              1.8777151768804203              0.38671972635543755
H              1.9262161024029207              1.9009130308205917              0.9495416797539898
H              -0.2580749668187314              -0.05784151096117232              -1.8406305166473775
H              0.24897229494991954              0.27996415058505414              -2.2954453989713097
H              4.713516387795602              2.2287925727566913              0.9441880432261841
H              4.699154376644763              2.551069499734861              0.2860794940935013
H              4.40489113675136              4.296211993324623              2.916720199892516
H              3.977180496158535              4.025404653724643              3.4565095523568288
H              3.204483611649865              1.3063426714877393              3.3528688053735682
H              3.1085655665017917              1.9605155997489578              3.1844672070554374
H              2.8724799394921874              4.610605509051619              0.021974475087273057
H              2.722020876740019              4.155069943624299              0.5991535658412801
H              2.3354135314606124              1.5929627402773467              0.6350533670717307
H              1.847413110455932              1.9419247235360424              1.1367513618233143
H              -0.2817793029096404              -0.052168394478151456              -1.5337116252338372
H              0.11828866224996844              0.18190533595799327              -2.1294807134743143
H              4.799170769726245              2.0659631442100723              1.1274645091070656
H              4.726637779436433              2.54896005583448              0.6179510830076247
H              4.562423719590984              4.292646452489221              3.0431814509544814
H              3.966621846988977              4.091119411965009              3.4622235659996847
H              3.049445345244733              1.4524642105144898              3.290437766448862
H              3.150586569186798              2.1594016600621955              3.264023020331338
H              2.8508548507454687              4.583425376328448              -0.022356122706800347
H              2.8474084329265037              4.243912240377731              0.6403040836412062
