72

H              0.7602474303009242              0.8590013393109478              -0.49784249052873125
H              1.4747917079321073              1.0938510726755926              -0.32718837665028877
H              -1.5536892745746231              -1.4577993128419875              -2.3995672107520565
H              -1.7821518325588432              -1.6483448556805975              -1.672484882142479
H              3.920126040718104              1.3977721038891684              0.7896678019876195
H              4.034377764647858              1.7601085575804825              1.3611521749956466
H              4.198531387477205              4.190111325311491              2.6358572314845263
H              3.645601453939192              4.0280635597884675              3.092317106325251
H              1.2487840567799027              2.1406926378898397              2.8859563548846388
H              1.506052829474085              2.1358984798136134              2.1081458807717603
H              2.11245165386753              4.098399088501788              0.21319619369259354
H              1.7227180008082095              3.878509912885127              0.8352016306273512
H              0.8780074681714655              0.9695609499014302              -0.196582671838767
H              1.4557814117372523              1.2160753924160912              -0.48840611815581925
H              -1.3702109670922051              -1.5498414945398742              -2.350383071378552
H              -1.4901746960561475              -1.4574004230111042              -1.6762063167168577
H              3.8689565177902243              1.3263782011353322              0.938094948661369
H              4.300405581192862              1.92002712224353              0.7810691112154091
H              4.199887280958845              4.469809781227564              2.4655301342358675
H              3.8402991250373604              4.018888754782459              2.9019266080866357
H              1.321012602550521              2.3022747394566494              2.7708724416695047
H              1.9459189698212807              1.9172961593466917              2.513415518501577
H              2.2913296857689693              3.892366567213986              0.087242619251894
H              1.7965031850744502              4.068592781534313              0.6606877615409671
H              0.9103484664745893              0.7151287961416316              -0.5503630547263141
H              1.4162315722834364              1.26833551146873              -0.42563903416646437
H              -1.4295138050524714              -1.5884761221108814              -2.4185006502434114
H              -1.6806479311788105              -1.6295313993303808              -1.767102852621077
H              3.8061770606853265              1.34393194013267              0.6257674965825408
H              4.121498675877853              1.8693950985806962              0.9405878754340715
H              3.9359419140408156              4.3469070246619665              2.506334457193814
H              3.672440923580048              4.005347448320752              3.118806494438944
H              1.328198869994624              2.3911716973623456              2.6224718028758938
H              1.7608402211488285              1.935692636857245              2.8990422063305386
H              2.5533838416957764              3.9340662167379143              0.19027930067226387
H              1.7916308759695074              3.990950294043131              0.4069340173430564
H              0.9334080280212711              0.5660197432509024              -0.6344207293998008
H              1.3548798033229081              0.9053097068408921              -0.1000857139046013
H              -1.5082092078615486              -1.7646519256200237              -2.589650864536235
H              -1.4840982449360383              -1.9539473226468715              -1.839890694975638
H              3.8516466930708217              1.2559291823386372              1.0059427868426163
H              4.406706167121228              1.7465763604235656              1.125229294866732
H              3.935412157104598              4.470050992023603              2.533513676117836
H              3.6137913676868436              3.974992804236539              2.9758189718388044
H              0.9967191716119723              2.116548455470932              2.72792962582718
H              1.8281795911099172              2.1656286835307403              2.648293418467208
H              2.371182379351004              4.149706677462298              0.47329218302415604
H              1.6818151641180465              4.126573563151437              0.6939324791506578
H              0.8671362323657659              0.6451332469512069              -0.5779268091408735
H              1.3338019902215743              1.0427385139693248              0.016803305311940377
H              -1.636227211033492              -1.4221293970513444              -2.3080388486745105
H              -1.6027528838176348              -1.9873705470940821              -1.8817710240912446
H              3.489365149202745              1.2932836624360842              1.0565859394469617
H              3.878457536704348              1.8527797275217355              0.9520415740712357
H              4.029902173577451              4.573301349799932              2.4211596848602657
H              3.861443331520993              4.067255392947144              2.8871223319116344
H              1.4812266144547954              2.220383207268761              3.1011211243524945
H              1.656445010085264              1.9791752800217135              2.3652388771195265
H              2.174330116674688              3.9272047105415844              0.6206426237604853
H              1.557344094898703              4.1508857625643              0.8910237720211558
H              1.1730125247560048              1.0284535878831362              -0.6239092562496973
H              1.2311452184184395              0.6321541595606353              -0.000493826669209204
H              -1.760917336694088              -1.422960410187371              -2.3194821078987022
H              -1.9428181564994478              -1.893594623965003              -1.7418627855223183
H              3.519950490860381              1.3933845377710588              0.8962871339795103
H              4.018132939284004              1.9712762334825773              1.0381939156985152
H              4.085719507051983              4.57477260516542              2.4767350734587876
H              4.018764787010721              3.9574898694883784              2.849679347533138
H              1.5234662329086994              2.0963634252281693              2.7587443262662577
H              1.7663901670528308              2.1180416899382855              2.115283424030158
H              2.322207793633634              4.199128164849594              0.7782255316898712
H              1.6388171761975316              4.395455026358757              0.8941717807514975
