72

H              0.9688441970450975              0.876430793580542              -0.5530024110563557
H              1.638327985512963              0.4971889267933197              -0.6333942532377944
H              -0.9913164116924362              -2.2784848887895657              -2.44812890569864
H              -1.727272288340907              -2.5082641433769113              -2.1226761220426913
H              4.253213326628451              0.883474579018456              1.3744020538676776
H              4.546039515072907              1.4050563260320577              0.9895896153104623
H              3.7927668683753524              3.72261557573229              2.971678372420005
H              4.08522522386191              4.320185671230205              3.1528069340943867
H              1.3372382077627658              2.1342077819244434              2.801326855355839
H              1.6733016847579527              2.527405396176848              2.232158824561686
H              2.6174816018853835              4.160681107461853              -0.2228850060324019
H              2.2618423762347954              3.8625603501854755              0.3688553689385263
H              1.0683074701100697              0.6741271746376237              -0.6090553936369973
H              1.5091175879231948              1.1010157457508578              -0.27944955694350126
H              -0.8011738290737745              -2.295829406353537              -2.033279086069746
H              -1.4165048406478031              -2.1947545153405623              -1.8426070188188954
H              3.838376803752711              1.00345833201775              1.3361036101264108
H              4.066110391638448              1.5435152076431216              0.8506584823966203
H              3.938218589403277              3.5524899509893286              3.0517300498241773
H              4.357015138417847              4.080394867707013              2.851502878601042
H              1.8610758131472445              2.2398039577806372              2.8954375970691064
H              1.3552062912390024              2.2920515211240655              2.2087202340370844
H              2.8257407697957277              4.08751157072707              0.09084494064247782
H              2.1432978546036665              3.705783294273368              0.3231155648312653
H              0.857392993641592              0.9008456351813051              -0.3477724905017639
H              1.6161766760834522              0.9788248954024203              -0.29409554608122435
H              -1.0885390821115275              -2.4875689707823865              -1.8593258364257583
H              -1.8004365641489424              -2.3704041942602094              -1.8843593143140394
H              3.5615634060000705              1.1913062940214616              1.4039149699555493
H              4.221290955790251              1.3922451398832096              1.2463135194278123
H              3.8269641368473795              3.699820694151393              2.9814596993169804
H              4.515567099469784              3.937066712224704              3.0075457562098475
H              1.7018489333940197              1.9354609510347256              2.770602656159287
H              1.5023869002219772              2.2135103518661814              2.106238340799412
H              2.940361428790255              3.872702233588589              0.27307890046009586
H              2.160186446628588              3.8392742675650573              0.2634018230142001
H              0.7151039427764962              0.8561918155587808              -0.42674527916581056
H              1.4286082467491288              0.9507124716695226              -0.315992883584699
H              -1.258761977845686              -2.494544126566698              -2.2541135350597936
H              -1.9982168491102879              -2.675204562303591              -1.8761619152341604
H              3.835769836843342              0.7487282996589364              1.2759390568434776
H              4.437046590196594              1.3246036651019248              1.4732561428673634
H              3.474995506289372              3.71815036476467              2.9419696222735254
H              4.046562807796529              4.1092021527943805              3.16619102726073
H              1.4463354183615549              1.8832293782318215              2.6828707356311297
H              1.28975357258162              2.333790251610232              2.1875761758553756
H              2.516446805087368              4.088415619848649              0.0012252644607704181
H              1.9499040348494985              3.699872419581742              0.19683697644742687
H              0.9395273359790857              0.879490920061815              -0.646040415710255
H              1.4525842074989048              0.9760307541608265              -0.1819532932531502
H              -1.4463296616592258              -2.226275305418066              -2.3498760350749865
H              -1.887609154273439              -2.755427959529558              -2.117839505795024
H              3.6495858006833792              1.0439463113345484              1.4008275679167026
H              4.2791195568099045              0.9826140295431772              1.0226889458843287
H              3.607651585215669              4.072400263033474              2.757088221249491
H              4.112201740350597              4.266803382697539              3.168184099040852
H              1.9369332214891803              2.123432864019381              2.834367819055002
H              1.5147110523322593              2.341596633360368              2.2045039027339457
H              2.451632132372777              3.761726515242404              0.11388243852053687
H              1.726774370094724              3.967879495883242              0.0656327889866558
H              0.7294668504382629              0.9770838276021758              -0.6599508697014009
H              1.4177665866651679              0.7943555228865959              -0.43774802747094227
H              -1.292838201938061              -2.2181474852987324              -2.2962871534265132
H              -1.9945445016789978              -2.5588859614913657              -2.190610056399248
H              3.9662796765135178              0.8621299898590867              1.1723226049327715
H              4.405461323554373              1.5068022051552994              1.059833240943098
H              3.5877374617409217              4.026214963700404              2.944287955405672
H              4.206232053054093              4.375360329503498              3.0565935098101993
H              1.6935388232696365              2.126065175264537              2.952867358180458
H              1.264075553253278              2.2955925656143474              2.3561407165216885
H              2.634099059416152              3.9466829838110757              -0.14637069439204992
H              1.9572037163289142              4.0320263951229345              0.12589955447345724
