72

H              2.458389933227071              1.8958658821823002              0.32254844717956493
H              1.9943149180342672              1.9040522206533257              0.8956223407409177
H              -0.48763901608665094              -0.45025376289810415              -2.07460879569539
H              -0.07098269934355501              0.15763983421163527              -2.202193170359839
H              5.0574494723317125              2.309952200081991              1.2153920679088321
H              4.5903695681580095              2.388507149390612              0.704842208161425
H              4.024434422515949              4.669609268233578              2.8799200195117107
H              4.002182722886405              4.171758318510711              3.493700597135152
H              2.7070459866654635              1.9211737940166318              3.315575509718045
H              3.29880498043415              2.131419630609468              2.88526025132362
H              3.298805629025537              4.331419756736943              0.028689788097040664
H              2.625002947909041              4.34771796079729              0.32955142021903283
H              2.467364772252677              1.8771520956419598              0.2770136717401329
H              1.8012068095912959              1.8210301096709915              0.7114948797476658
H              -0.4682325542680367              -0.29927749807224496              -2.008133358923487
H              -0.1379316713355948              0.1496086486727133              -2.4243163603550477
H              5.010413309069312              2.230421753785373              1.1398398690223868
H              4.80454002899522              2.383958175077958              0.4587023759570832
H              4.1011619247233115              4.875752068297911              2.8963862701364373
H              4.172933792433081              4.213996799614537              3.175619477156473
H              2.7417241988962644              1.7406903754462595              3.4817383898010617
H              3.3455211983321678              1.7293636537155095              3.137406518681841
H              2.861958636567761              4.537325089431556              0.11079411895342929
H              2.478531405006597              4.567839868927902              0.7220440959041263
H              2.339475959493246              1.8941634920847712              0.2592575972103897
H              1.9676549985567953              1.891116680105258              0.8960380593449628
H              -0.3909541486628841              -0.14569143735385612              -1.7643367334526936
H              -0.11408347762212942              0.2336751874016774              -2.422262270792085
H              4.9904526827203215              2.111585969784289              0.8624665084304795
H              4.502263169152932              2.5439590175267477              0.5934011326654127
H              4.2183687104841185              4.82665288524663              2.9253660390875873
H              4.081556150090418              4.100630624113557              3.109867199651183
H              2.953400483837876              1.4894762499438663              3.57552980777446
H              3.3453525560147495              1.978903137624822              2.9951685301033324
H              2.748498740357499              4.501418711946096              0.04869861315581761
H              2.4705606185110764              4.748638149564837              0.6726202233509234
H              2.285248257562205              1.9062309649818068              0.2930009933606178
H              1.8514971840341357              1.904275001290595              0.8974818466223193
H              -0.3859623616815907              -0.008858858057135106              -1.9579540842809717
H              0.005676769214073795              0.31737669849532874              -2.529698982610117
H              5.087810791182571              2.2337735903470133              1.132267029205138
H              4.504866308560301              2.527249957974815              0.688810582278573
H              4.27961884311157              4.613992806648565              2.881703575249617
H              3.914903606756966              4.076580815567412              3.1629793117439404
H              3.2237760339165535              1.2392327777589833              3.0656886444931515
H              3.284912533709775              1.9138779541682482              3.314445859132245
H              3.003958553683677              4.295995841521415              0.1459878805548205
H              2.4729847792082813              4.665370147642331              0.5396709783977273
H              2.2518781258546863              1.9920958929346793              0.3853715371547822
H              1.9237533850364206              1.7840312266834226              0.9972047835713497
H              0.028106825155980394              -0.021498205812500146              -1.7948491330008212
H              0.2765485877182632              0.5505957017252213              -2.1972983341053216
H              4.907883715879083              2.332775415273329              0.9335043640197704
H              4.47926501756235              2.4982948627119574              0.37485804340167966
H              4.41236364092675              4.469583670112735              3.004920527536494
H              3.956034094176705              3.9115755133995105              3.0959990690182826
H              3.293561829120212              1.2469951070483376              3.415874755622226
H              3.1989857777401918              1.9407173277951837              3.229418785677627
H              2.892082308001633              4.425177894319227              0.061354381942531934
H              2.8299583816390164              4.228663865976281              0.7831564005175826
H              2.2766906719769207              1.7297849383011117              0.7892152413808604
H              1.5455103915336894              2.022339841838075              0.9152320125578708
H              -0.2790268855420243              -0.11753721777305365              -1.684633944990085
H              0.2545107238222824              0.2733969081012205              -2.08593787397414
H              4.932986512753709              2.1923207745136932              1.1497394481746361
H              4.80773240732756              2.515871247177611              0.5439704268093513
H              4.425912747725696              4.465566721239789              2.952477770290759
H              4.008287765924246              4.136009194030075              3.4730804951174505
H              3.241485811710935              1.5794871516873048              3.1532092028119654
H              3.3298157041285776              2.2517157862976              3.17962057053493
H              3.002054015908491              4.5936812968942515              -0.025080046972969172
H              2.9237577635659675              4.460637823168696              0.6866988179677053
