72

H              2.154299111365571              1.4573636534104215              1.4712264788244382
H              1.6696997657066521              1.5217507066421436              0.8694860580372323
H              0.3948609835953665              -1.0509802352263375              -1.7629327690599539
H              0.1421599492834515              -0.4961727387906114              -1.4769411137954698
H              4.594029318493137              2.339471771780293              0.5855355269215993
H              5.10028727857942              1.942991931989643              0.9732088798879271
H              3.8090705302375514              4.273735088526409              2.8095223669610148
H              4.2301488795321935              4.820240172475974              3.003099174027677
H              2.746456248846387              2.499228522957233              3.454211337157245
H              3.125873411727859              2.1635121986571804              3.91750075547041
H              2.5284097068925133              4.5751885527709195              0.6070603488036269
H              3.077705461485268              4.0845222003029225              0.514793047232504
H              2.242271187457415              1.6179811128539727              0.8807622940358834
H              1.5869597694294248              1.4004816807013338              0.9885075134224857
H              0.387128828896585              -0.9874432755794571              -1.9674436241604998
H              0.00021050860301717543              -0.5513504422953462              -1.4801613200776387
H              4.448678394761303              1.9504394287881515              0.6517864575468101
H              4.812332508809224              1.9766368469848652              1.3399000716734073
H              3.446021769175679              4.614438451289686              2.79354875683847
H              4.082561152424872              4.708069793012969              3.081708365073258
H              3.0982562912112246              2.6215801630772226              3.5366123694768032
H              2.943922297546185              1.9894395505070797              3.810192566825297
H              2.571966908363769              4.282605989356114              0.37901449205427323
H              3.2829158816380968              4.170869763360309              0.1366909880512615
H              2.297638814098715              1.621826218823788              1.1515305759362569
H              1.8526172454254657              1.5093369685013875              0.573682816176565
H              0.734272503180981              -1.0828196206841447              -2.1780581315152405
H              0.2454668607509744              -0.7356582731369572              -1.7060346669701072
H              4.821266739524173              2.1170270493493386              0.9280409197731452
H              4.868157152444109              2.197017093982038              1.6038786754735985
H              3.588412722449464              4.790656882920835              2.5094258412279586
H              4.201616025363983              4.785608983856288              3.006373444476089
H              2.9546222376974054              2.4038715687696532              3.3877329811896315
H              2.91465954809774              1.875261378981664              3.9410664112687352
H              2.84821915246958              4.27198554161856              0.677611805139505
H              3.1519610460240206              4.2050982433520785              0.024719659794607857
H              2.3710917852008286              1.3071983690226059              0.8760006115938872
H              1.6363421766747082              1.581723568033136              0.7864313454447325
H              0.8952121157163981              -1.056613944522999              -1.906535493428512
H              0.24641014079409876              -0.9814566704904795              -1.6946933543197389
H              4.906791811157197              2.506925283100188              0.6435518888188316
H              4.928274481377829              2.156438922065344              1.3245527389620604
H              3.583312952340864              4.5281039515124535              2.860968661332565
H              4.343283229153311              4.67451665056628              2.839525176607844
H              2.9537380463913125              2.4531505753837437              3.4165239447308138
H              2.8182212228053807              2.322045397867341              4.091756232555546
H              2.9483784254879573              4.272037837713653              0.7435399650330402
H              2.8394273411168167              4.018286160233364              0.11830666830439414
H              2.431435514386536              1.489082825609072              0.863186240993941
H              1.6814893551522385              1.5753600272485575              0.7494465412284566
H              0.6650417609671947              -1.3323186576130686              -1.8868796031224615
H              -0.10768451428295589              -1.044788039759523              -1.8348971094891537
H              4.69211992756043              2.4953652558253197              0.7014834412140681
H              5.031351812513272              2.3389176084485035              1.3687445466869463
H              3.6968649421144537              4.35909600417498              2.6156344732428733
H              4.226537973077375              4.598986500839475              3.009193691698284
H              2.7329054652540754              2.396667427083356              3.7552208725966967
H              2.8153750369178465              2.0242182557411774              4.38094885911246
H              2.8181625745618417              4.193057687526781              0.7798490902155742
H              3.0650770865334342              3.90357612340786              0.11966155422038104
H              2.431351819633458              1.1163573687878576              1.084352881441266
H              1.6890587959687648              1.0842616439226826              0.9147699099169178
H              0.5337012534808977              -1.2107012735589773              -1.9741374295039467
H              -0.0374774005395662              -0.7175769174925365              -1.7194678977736322
H              4.7678897890299625              2.300556639155536              0.6576896512253755
H              4.966362836512389              2.2761109484738196              1.473961491721142
H              3.842808784463469              4.236668430818709              2.6097647914281352
H              4.144285967130794              4.679247144073818              3.188366748494005
H              2.6802644477831734              2.229473642974161              3.5552709155586695
H              2.7726950323947293              2.1362319661464513              4.230752232561623
H              2.5744634453053745              4.185623433849313              0.645808705476789
H              3.0739605258158793              3.919176938080558              0.15265385162371228
