72

H              2.5532156018917402              1.4418094602799647              0.6083956928351167
H              1.9500794185781467              1.8866942319934634              0.7242226409603308
H              -1.5050966901602796              -1.4171317644119679              -1.9520225524304577
H              -1.228273031607863              -1.6198457255921666              -2.491340764726629
H              5.071485831888765              2.239720429490846              1.1664768891905082
H              4.886961466236037              2.406865461267398              0.4741781138750404
H              4.356141816904582              4.729683564065943              2.9702314863388883
H              4.6126424484509085              4.012129235419756              3.0463394764809695
H              3.543743841759795              1.7170830738482392              3.4958458958369225
H              3.056147923315073              2.227398679898192              3.408612053281809
H              3.125634826397115              4.3148026264388015              0.8065637928047912
H              2.5048740039975943              4.47763616909511              0.44985543070203476
H              2.7191896576996206              1.7751321370208804              0.7265450230128211
H              2.031262989851021              1.7885819239231144              0.8964850843237723
H              -1.5871677890800915              -1.5476342546938813              -1.9947529067082879
H              -1.2641001106178273              -1.765003664482704              -2.707853543342581
H              4.978831605007084              2.3901825517659483              1.186267653833653
H              4.977191114857329              2.516019466253653              0.4648691202154735
H              4.5234081884528194              4.550668368326166              3.1721966625319764
H              4.5272905659161875              3.9283189674617547              2.8853206368454836
H              3.3466939576757944              1.4518373315875133              3.2937928848672566
H              2.877994549283757              2.0252724592034994              3.369459289861521
H              3.1203550102595896              4.509026872011044              0.7253302418890634
H              2.4915702450389183              4.283405448065541              0.4930672476339738
H              2.500094200886143              1.7309531015339514              0.6986411598238232
H              1.814014047310559              1.9027083074270965              1.003809532447871
H              -1.6841457546410208              -1.3989285050834195              -1.8447111015769413
H              -1.1681188500614244              -1.545430479424255              -2.514809003232123
H              5.113915210832903              2.359369689551047              1.1365702530106776
H              4.793524234924644              2.430666218796177              0.48846058008131643
H              4.624838952483397              4.597254143593088              2.985258769734273
H              4.744226587010062              3.882859652635587              3.208328492994522
H              2.9227721186675764              1.659447404212397              3.7313904617052933
H              3.0712805088713018              2.43222280304584              3.3820429825363956
H              2.9655036944134996              4.408627441026515              0.9739547106477932
H              2.738315315085102              4.274868498778977              0.24514042850273937
H              2.38326375779316              1.7460951895524996              0.6115791802329505
H              1.7211136640110636              1.8954142635427949              0.9798607855377263
H              -1.715113732095788              -1.2155623003985923              -1.7761831102265215
H              -1.5504768242370135              -1.2260403311870085              -2.460455929172301
H              4.848464222085467              2.3458272481470184              1.1492182646930347
H              4.892089701397415              2.5362150184451644              0.46185951004745285
H              4.59146964059844              4.723754536467383              2.677386456840111
H              4.845523748385268              4.217824056716207              3.113224279655555
H              3.5081081688966402              1.615565981608711              3.5191541321400717
H              3.1392961019767633              2.2373240970080586              3.8670970259796453
H              2.754708397874473              4.545258813474413              1.029553420638023
H              2.9096825564720534              4.501732492421987              0.29272056284359954
H              2.291306953288039              1.44580597625405              0.46417731393831946
H              1.7653995003523066              1.5518603745325599              0.9407091704902782
H              -1.4742655575716797              -1.1161448830187954              -1.768240920083237
H              -1.3417816287041566              -1.304801865091681              -2.546937762574453
H              4.998459132920743              2.419066396180368              1.1684165474119395
H              4.7519262053081315              2.324524396054545              0.5068324398979387
H              4.285674313454446              4.7831487266189425              2.947431300285247
H              4.58809957880192              4.149645601692214              2.9230996544234165
H              3.712415436290648              1.9732881107933502              3.6308839214143234
H              2.9982234957623173              1.7365835520777373              3.2738609415603195
H              2.9761671971920975              4.320404287094356              0.9686830484807869
H              2.856932244293216              4.411876490326312              0.2758532329128884
H              2.3502421985897937              1.4035829354046185              0.8177696075885126
H              1.862660363102157              1.9052241605342317              0.5918033205126199
H              -1.2348069213594057              -1.3595487567073272              -1.8417930208904674
H              -1.038392808798505              -1.4735684651053849              -2.4722449216689077
H              5.027440267773624              2.389913156889084              1.2061083513245074
H              5.024400845611516              2.216554813510235              0.4986134856030466
H              4.288249497771861              4.7462592237591              3.1373347258500655
H              4.626725136952226              4.04571018463331              2.9441000486074658
H              3.5325693652020163              1.8190773406069567              3.644147170251182
H              3.0162919384076323              2.3533404640925095              3.3625784318807415
H              3.164041157869848              4.561645273520553              0.9225139288479399
H              2.902027527209912              4.617846766780359              0.30239473223243657
