72

H              1.9526345975666257              1.2929661534249228              -0.31507297094206915
H              1.3295764092546718              1.1735416912415395              0.08477638447491201
H              -1.517300695835908              -0.6761033328121792              -2.316901290928689
H              -1.1357888546021653              -0.7207338395415824              -1.716836385236865
H              3.7858163332822317              1.6570962060615257              0.6738928200895693
H              4.29620179158632              2.154645898145221              0.8410826233306147
H              3.677620022835258              4.2617450229735505              3.1978644110643843
H              3.939080034041197              4.2970519579542              2.448218416104393
H              1.797672960757994              2.071082989858846              2.728870421260351
H              1.7626556497722026              1.7492037620892078              3.3831310429549037
H              2.029836176986989              3.8496432577617448              0.4304321268601894
H              1.3132425307735849              4.0795773074261374              0.7316742323101378
H              1.8644976889954263              1.1388523731360634              -0.2729067776677091
H              1.1369197278096652              1.237795317113145              -0.0005935295718049848
H              -1.9202815034622387              -0.6956851078386354              -2.5324086881393564
H              -1.3352621215721916              -0.9359293175356219              -2.1121426766118176
H              4.097128067552446              1.6951409936151247              1.039853352060693
H              4.511061955744475              2.248685742167072              0.9408611195727037
H              3.536285876649944              4.673300450533104              2.9585097852119127
H              3.845853786582706              4.33643989644891              2.342973714781552
H              1.6351823791203293              1.9436391228138108              2.421297057967038
H              1.8416430877405225              1.9319535999054838              3.0721247058816843
H              2.068355006949601              3.953254793240092              0.6786619049222213
H              1.4298986386497206              4.242219754615598              0.7956419170912012
H              1.809023944932229              1.3041266464209786              -0.5938660436447345
H              1.2088017033293805              1.3698058277150535              -0.19127327388338136
H              -1.800433415232096              -0.5508782389413188              -2.504270644660372
H              -1.1028803816088053              -0.633289571886532              -2.3898941095138473
H              3.855892159957814              1.7814025714445032              0.7554982239005036
H              4.268218709340748              2.368280393283636              0.8839864357616273
H              3.5542503306423074              4.235900228826052              3.0315410518686106
H              3.8922606190176814              4.608523212378036              2.4267873102748885
H              1.4822898226511916              1.9906033579867313              2.424647709034054
H              2.0755356077943845              2.0720592090891206              2.767544165904652
H              1.6576473418538547              3.6621169372677933              0.3333713137949414
H              1.569895518440185              4.04699758908491              0.9942736318522766
H              1.7002588326131864              1.390495230002102              -0.552302649605229
H              1.459805985239424              1.222712398815856              0.17661736746711454
H              -1.427765440580602              -0.34299724416735433              -2.2324043796383504
H              -0.8446497214605764              -0.6186514227595246              -2.1252439206491176
H              3.916163734761974              1.8316997890805249              0.6091229023767676
H              4.233877844637499              2.4892811444993987              0.8266978116149003
H              4.006686663252067              4.061280375358224              3.003601460325128
H              4.162562776662304              4.581269268382309              2.5218218881160133
H              1.8450649537671748              2.0668196480946475              2.227751453318269
H              2.1224265614699678              1.8637756872352527              2.910358998425927
H              1.6963103206886554              3.7474055813802667              0.3838158957031817
H              1.7753142351356759              4.2804331542758876              0.9062419947972665
H              1.7577019038129593              1.1986881149914375              -0.44470939014706895
H              1.3927374024734596              1.2528656900942652              0.210187976554047
H              -1.462636243532068              -0.3431207959200481              -2.266264037433562
H              -0.7982161627222613              -0.7166972896205347              -1.8501531918176186
H              4.4947383233097025              1.8005535739119114              0.39347214975074457
H              4.423373296927537              2.332621103758452              0.8759413584372514
H              4.088400270046521              4.140621304644352              3.268912390121372
H              3.7499699745353              4.171342995900584              2.6372087646779288
H              1.8845057054160679              2.4475915388813676              2.5073915752850473
H              1.7250319200094204              1.7303426661126409              2.692355585190445
H              1.98621729037688              3.7891910459117573              0.13496552108213125
H              1.7064642753656665              3.869356622929577              0.7697013091002705
H              1.6647826198367435              1.5186478227396951              -0.3747834219836263
H              1.610733550391068              0.9779674671774857              0.1332418412758068
H              -1.4779822916180172              -0.605730780535431              -2.4424588883073577
H              -0.9042570862958913              -0.7441901675795608              -1.8494855924790772
H              4.253825703468793              1.6704717218837999              0.6406581847775848
H              4.788735669246503              2.1100593454602143              0.6092202653442623
H              3.738496132670901              4.002638770511939              3.252512939885041
H              4.0281316884858445              4.353724469327417              2.662248554116176
H              1.753127648649913              2.0805239967655758              2.477495268279985
H              1.828504773868536              1.9318366358687207              3.154816979277105
H              1.9367539249287011              3.815606529099105              0.16369957450531208
H              1.5129890994196855              4.065260749505301              0.7080665392320803
