72

H              2.1569886760647488              1.5369443191042294              0.8979645395764898
H              1.725594954955455              1.996242932514684              1.3045562957166474
H              -0.16198216950024014              -1.1224025434317173              -1.7177774585939274
H              -0.9053563628378635              -1.1300091461915225              -1.6264195243889654
H              4.780406223530494              2.0337468758103445              1.0861856344281708
H              5.069413188852859              2.7074094874291466              1.0024957962263212
H              4.342823365000915              4.9318186348373665              2.608963250628488
H              4.3857927457210595              4.734204565270157              3.2926717070601006
H              2.3335733731037838              2.0668511749722795              3.761336367255629
H              2.812831309690168              2.3452738336857046              3.326954085284003
H              3.02370425879411              4.345902275427699              0.421782865920358
H              2.8569126797318862              3.687619781056401              0.6716595320650056
H              2.348633843596335              1.9377028227164428              1.2076318620119828
H              1.7702441576281929              1.869963970595209              0.7203150805179025
H              -0.2854785338660061              -1.004826647967061              -1.7952156052958446
H              -0.9638244666570249              -1.3013833792693752              -1.819305128202937
H              4.662805150336216              2.131603036728712              1.3070518334604802
H              4.9279186994633815              2.81232484558067              1.0307443831762968
H              4.238336816721773              5.05581666361836              2.3653339154960347
H              4.152789277783829              4.732184590515579              3.0758276264967845
H              2.527401998160396              2.3223577788334535              4.0059844020311175
H              2.884755173737891              2.367235230110807              3.338193194063986
H              2.8690567056217233              4.286689784311912              0.2538707490908615
H              3.0430714645060464              3.729610327495185              0.7192555822191541
H              2.488567612946068              1.5019979503136613              1.074465392174078
H              1.9012941559807224              1.6516542343671354              0.6676884180646933
H              -0.16445476220216607              -0.9387585012756521              -2.1528181257322494
H              -0.6487186089089451              -1.3544180278563729              -2.0407292424019805
H              4.703998543754348              2.133988484797503              1.3077880833710007
H              5.026018154733828              2.7272499241573276              1.325781065658115
H              3.86938850069406              5.143143656561977              2.431080567577288
H              4.15810978301621              4.616444613549672              2.849139409517697
H              2.5818892340836475              2.345499998162768              3.6144526588039434
H              3.1138809869652393              1.8933311513276954              3.198439425170433
H              2.73641566351567              4.233674955989983              0.2444624508971271
H              2.727675096597595              3.5724594659867797              0.5618239082526428
H              2.301075507656009              1.4824365145851945              1.0728989692916653
H              2.0187380045446597              2.135433196558097              0.9233766584181811
H              0.21441870978485375              -1.1457484750306028              -1.9203483203556735
H              -0.32292206797870043              -1.5045566514424085              -2.0942618710642313
H              4.77778544635966              2.167112152672268              1.188539440233346
H              5.221627765467909              2.848347806963125              1.167008721443477
H              3.90142006215103              4.767196049944019              2.525225274463489
H              4.4312977113931815              4.510454950878726              3.0721244617669274
H              2.543302509743345              2.2865913888602556              3.508488616778685
H              3.2325238609083553              1.9206749269185985              3.149972403177009
H              2.820633601080089              4.518262897167857              0.3452997525443874
H              2.6777092135856324              3.865044583417369              0.3523130405306347
H              2.225029245823061              1.4232671162196227              0.9744745513103744
H              1.8358394290057198              2.136448719401937              1.0664975175239957
H              -0.011357391813529391              -1.2867344824889393              -1.6482832672647618
H              -0.6409179964079309              -1.408351461531931              -2.1241262134033234
H              4.943077016490889              2.0476087563095904              1.13478747143792
H              5.025629523840017              2.739427733225459              1.370795059435048
H              4.23382011664378              4.696745177566424              2.5291435819084582
H              4.445575406240511              4.52004136022563              3.287839627295528
H              2.624468324812303              2.331248064436518              3.5390184060754843
H              2.9850653685098583              1.6704134496894893              3.5840806469901243
H              2.7124272713974618              4.521449520528279              0.2199047035514929
H              2.954118125029348              3.7928345618244417              0.219143373945669
H              2.3963421305569206              1.594228126023456              1.1367997671479766
H              1.809947912317211              1.9769878435917851              1.0927082117883251
H              -0.12666997095648122              -1.3484592791446257              -1.8565447256976617
H              -0.9314777900015554              -1.2155982910027385              -1.8759563767421528
H              4.86009512122261              2.1303617319024157              0.9645977239222747
H              5.089334982757122              2.6637221576739565              1.4781738211689612
H              4.562100167963025              4.831322711630631              2.571076405089659
H              4.405183434133804              4.671195555027597              3.247619081094988
H              2.353623036530645              1.7832835485816558              3.8403448573289847
H              2.9827482817330115              1.8478500798816535              3.350774729664224
H              2.9404685947609956              4.5136141287574665              0.2550684364517164
H              2.869802640989348              3.7899704627790185              0.5154483804932437
