72

H              2.443593707367349              1.9162290911885635              0.31773186932753217
H              1.9976814220080967              1.9126348415878012              0.9015370829985533
H              -0.49057411726879163              -0.42912608551296955              -2.0711383972251163
H              -0.09213022714998173              0.14497509321286348              -2.193454049111674
H              5.063274944266022              2.313818204404393              1.1920531140464437
H              4.595528739322995              2.377117974182102              0.6987529624720785
H              4.015578336707136              4.669803433812194              2.8874172501714077
H              4.012065572248098              4.174458572542692              3.4799308332766534
H              2.705633832677992              1.9275162272913164              3.3168249253339965
H              3.300337345860408              2.1194343851257917              2.896641659548933
H              3.2869748843910664              4.3256904192057695              0.03137034439325231
H              2.632168584970625              4.354795170144481              0.32915876348441386
H              2.4626889483271963              1.8767803905142082              0.27938936925402275
H              1.7985972243869837              1.828795713662624              0.6848017702995955
H              -0.4854390597304777              -0.30730478111840104              -2.0103808494304007
H              -0.14063033751197257              0.1618233652948613              -2.4301832314236607
H              4.988366807639054              2.2240104598818              1.1525858940681197
H              4.7883229154056215              2.3842053427799543              0.45022954153200306
H              4.085660621255485              4.866577442571861              2.8967262903213125
H              4.166748684274205              4.22285861397345              3.1857461012891024
H              2.74117579789725              1.7361787432088198              3.473975591718874
H              3.3470704241446367              1.7267446330003835              3.1570316984508344
H              2.8544643243470516              4.535668274703431              0.10101128269900378
H              2.4747559447001195              4.568128731563702              0.7202262272021228
H              2.3406393052128305              1.895193458488241              0.24728664242132442
H              1.9661738772106763              1.8837789901894688              0.9006124720917023
H              -0.38443623697174917              -0.15211687953985845              -1.7691577817290371
H              -0.10862350855076207              0.23778711563146449              -2.429167165744507
H              4.9874238345885855              2.1182976330924372              0.869447597133144
H              4.492148476977706              2.5428562595752804              0.6112089767991045
H              4.222763058088051              4.833407073540139              2.920855650236762
H              4.079424141066703              4.111374591923022              3.0982191428678014
H              2.9534997079270466              1.4739522975733634              3.579520586683984
H              3.3359281955954945              1.9792888319659092              2.991825123610441
H              2.755641913098723              4.505651463074218              0.05410241300268282
H              2.470040747426095              4.75676095595199              0.6712224770713232
H              2.284792662838312              1.9110053855298277              0.2875512133955634
H              1.850249332512671              1.884624114815818              0.9028726697371884
H              -0.3855380856686419              0.0010726656865815453              -1.9729477201208996
H              0.0040393337795551              0.3154124635425188              -2.5237261305362098
H              5.094331079702955              2.2349724350492037              1.1126840562483926
H              4.508255590005711              2.5345926573946578              0.6851407291136624
H              4.279462189780987              4.62179729197561              2.870444731195723
H              3.916098077094804              4.086009623165808              3.171765081612346
H              3.2171899508625974              1.2560340733446338              3.0614581235402105
H              3.293027396559035              1.9097227781017407              3.3023805760553335
H              3.0082313489560075              4.301357078690842              0.14314949573108554
H              2.470722520607914              4.658149313244926              0.5407071695660948
H              2.2626753266728556              1.9900906060185326              0.37914354526700034
H              1.922483184343565              1.7881436524885226              0.9986856445358032
H              0.017291010508445115              -0.026124730982678205              -1.7969116729370638
H              0.2803687785071028              0.5449997736891402              -2.2016888156990255
H              4.89790837130324              2.326959431418302              0.9394762508585003
H              4.485331629689868              2.5035145120577433              0.35665866720330147
H              4.414859387372798              4.461881292081227              2.9990401251251595
H              3.95480084381973              3.9095306957045888              3.1151461440750263
H              3.292071290784483              1.2446445731577918              3.417866738313236
H              3.1920559817702228              1.9395931243271467              3.2290141727789203
H              2.8908665114766947              4.433552722900539              0.0578720497595742
H              2.824789238689701              4.219280784456968              0.7779689591111321
H              2.2799880724189214              1.7175958486821867              0.7919747638097823
H              1.5551249433469199              2.020330786703656              0.9266705120020442
H              -0.28067763738110224              -0.11398146689509012              -1.668036360980783
H              0.2540660284653477              0.26899772196511224              -2.0880682782466815
H              4.9236887926523885              2.18146493669171              1.1497398823804443
H              4.807052046699738              2.521284142111491              0.5505768370854718
H              4.436942090559508              4.453684318115891              2.960034043790886
H              4.007301559849258              4.13357126933208              3.4738872714645046
H              3.2345308134310606              1.571221479714541              3.1577397235338815
H              3.322104931012229              2.254853305300796              3.1842614600834693
H              2.9926479161154904              4.597144202696231              -0.021373364544228547
H              2.924897998458763              4.452365521695107              0.6798735714145269
