72

H              1.6151672809904447              1.7532273040502928              0.16292363920788694
H              1.2711734749207926              1.4165393763531882              0.6631727864008576
H              -1.5687343175183253              -0.16464579144883026              -2.2308824502224556
H              -0.7660903185115601              -0.18713831862361055              -2.128782914069549
H              4.432747859502781              1.6472431650584742              0.8697364140956553
H              4.6547783357865535              2.3553789262945863              0.5557970629010771
H              3.342524195732728              4.024189902287729              2.866630161896488
H              3.9177266743721875              4.5733228717296965              2.989375598341711
H              2.2090450689092878              1.6698670590930536              2.7955413001769
H              2.4854376758463257              1.7625721169685293              3.4904773858088474
H              2.5444286605995337              4.1032921782808796              0.2864538368332823
H              1.9693688025736598              4.146131404893241              0.842920560529442
H              1.4015506569826617              2.125633616141718              0.2663575802095597
H              1.4657434602267039              1.3387173113930766              0.19117408318688206
H              -1.2934347453929391              -0.29740094474788353              -2.2884303645747264
H              -0.6841616649788714              0.07499059980784166              -2.3051322682373487
H              4.305566799993336              1.9368926166922606              0.9635378111560295
H              4.311603044495947              2.2931094643031735              0.31383505654064886
H              3.405746344293982              4.4501938744802185              2.4141508427741387
H              3.9344087095722786              4.500031132897151              2.9505643272615294
H              2.0740390051508837              1.5045603405857244              3.0333640410325535
H              2.6764571273391073              1.6837013914131904              3.3549757039419656
H              2.4696404272502748              4.21265426330751              0.33868700934906454
H              1.9896869952968672              4.331738208128117              0.9175623572145115
H              1.6588559266718672              1.5781084974296264              0.16670116246159852
H              1.1850638701508607              1.3121881795543913              0.5527617440216911
H              -1.2422142150118185              -0.060372378504353306              -2.2812625108637303
H              -0.5712543718794894              -0.06352151222160465              -2.425565983646611
H              4.250333478368496              1.845130701950113              0.7393288551112339
H              4.264208988076503              2.625674114584879              0.7975573947275764
H              3.456702086598406              4.297173041879268              2.7446299796460596
H              3.956173214817258              4.826088424284328              2.766044690797083
H              2.2277918054912624              1.8818017658021333              2.712606772061606
H              2.86252049759757              1.669946733273813              2.9691460376799834
H              2.5612887794699737              4.224861615690565              0.33483500840025293
H              2.0922616882055287              4.4277162874137765              0.9069488290145408
H              1.5136823391686847              1.7950815199673198              0.12627755800799995
H              1.488400285644127              1.2324363903686304              0.5610942581508115
H              -1.135936153243176              -0.13876579124426225              -2.2539547924739303
H              -0.3639755786992363              -0.08381947208235936              -2.649031302852789
H              4.729963374696266              1.887537646096689              0.6351307943129731
H              4.629728959154126              2.6243883231766616              0.6074404681830192
H              3.5977947712899594              4.1127703868826835              2.7543087248665525
H              3.9752498855133673              4.7528203655833305              2.9229570496057717
H              2.390739790035604              1.5247465053950926              2.5456155565694023
H              2.4049484697607486              2.115934937189971              2.8214858377534133
H              2.616018436655762              4.152326768581288              0.2527557391567575
H              2.105772632323517              4.200466693300432              0.8036257349786535
H              1.6383926295093616              1.7366767476897276              0.4159400795086079
H              1.6790217121139444              1.0279906851314744              0.5446654488484923
H              -0.9321281454697173              0.07803667156839818              -2.039892032838498
H              -0.3090400392895954              -0.0951100224954617              -2.2566354120138086
H              4.292077949247749              1.7677260962061883              0.4258109143570121
H              4.661443993472445              2.5227090544248494              0.42938189747826067
H              4.02661693466582              3.933669071625588              2.7086989633186285
H              4.008563847098529              4.507215222628704              3.2584110282308454
H              2.4352933279817663              1.4441361848138778              2.656258169013565
H              2.5734128514827788              2.017052970249082              3.228958711568865
H              2.34249828501267              4.216617498610017              0.23176496798213364
H              2.11013380807588              4.033653911677497              0.9543418662491872
H              1.5387472566256433              1.6944663557111614              0.27249005254154823
H              1.5246292782461097              1.4297781235055271              0.9683546075249281
H              -1.177138287378269              -0.07877762785595654              -1.906240989276395
H              -0.487070959439027              -0.1786120356300023              -1.8337723468395177
H              4.4778804955174545              1.6507875578860487              0.4470096426600107
H              4.703034931653437              2.409769758029558              0.44205203032276114
H              3.760758420152927              3.9188648313605547              2.7732488955242656
H              4.170756661359653              4.440629038821905              3.0851183243842617
H              2.1507363827262393              1.4572658425102607              3.0641586860984034
H              2.6946282960575005              1.8603765641196148              3.3099401057047846
H              2.459468039731566              4.342950341595114              0.2983285275432698
H              2.1056169674219505              4.178351928788236              0.9428520656901507
