72

H              0.8700939284570406              0.958729339697777              -0.5190260740556232
H              1.4086460795629923              0.6456168608537108              -0.9016646980821461
H              -1.0241721963433583              -2.3589373967186806              -2.468409991232538
H              -1.7441689817414205              -2.564508218281087              -2.2541890920880947
H              4.071568207185429              0.993683563621888              1.4004468485296866
H              4.385744649097237              1.442010048149471              0.8910363999683526
H              3.621203952323272              3.7442373090031156              3.0652993704320197
H              4.136713007931158              4.361202558084944              2.9959896108258164
H              1.6629446697842007              2.206016407296657              2.813468089258884
H              1.6298510043702914              2.4907141524467766              2.172385663879834
H              2.731196304439481              3.9069080835640175              -0.22756857082829895
H              2.2708256346450617              3.8248932891299585              0.3500544874468569
H              1.1331142246343566              0.6378415660391175              -0.6474997722818782
H              1.584023535084586              1.192624169044111              -0.5243175115536699
H              -0.8015462041716739              -2.431291198167334              -2.135669603985787
H              -1.4930828019684403              -2.363023761459744              -1.8775298037934662
H              3.772925916916461              1.0524281529173345              1.338924538600813
H              4.161163853063869              1.4212660473859111              0.9312871083883597
H              3.8699242097524724              3.5454907317692204              3.103348459545765
H              4.42229680267795              4.015183401957595              2.9015162259229323
H              1.8636477203122905              2.2062693176619104              2.5579140446414628
H              1.2468796259726054              2.3699591708308425              2.3622977072231546
H              2.697709597227719              4.196123849004698              0.14716880851182987
H              2.2208022332094455              3.8300295198896883              0.5131289010102441
H              0.991679409870027              1.079514924385452              -0.5059887772798473
H              1.5873005693728517              0.9424871339041838              -0.12577288984035878
H              -1.0760331134457888              -2.391274072448029              -1.7738725146870677
H              -1.7628091133546229              -2.5466770843158186              -1.8367136993073323
H              3.653294261726067              0.9493635967874468              1.4519862603431644
H              4.27759489235198              1.4007071586926272              1.3586292344165285
H              3.940790047402674              3.6073900158172547              3.165826350765743
H              4.606408868481542              4.030388329758586              2.974650654917016
H              1.3659290248112055              1.956152143935874              2.8794923369297467
H              1.4293363924635425              2.1834176316180125              2.1845034221571704
H              2.7431912023437244              3.9393083357169996              0.40074550059264946
H              2.081464160990832              3.709616359407561              0.16804664394429328
H              0.9599185258726943              0.7310067912749704              -0.6056494477650034
H              1.543697000126305              0.9790927096691758              -0.1634041207118127
H              -1.3524814588023841              -2.5044592203068703              -2.1752418404644924
H              -2.0771273297097204              -2.5809333697832586              -1.8943976391424264
H              3.908390870400276              0.9078425377692529              1.3078754537998343
H              4.4722616111584665              1.3366486894480827              1.2512793538221718
H              3.52397876357082              3.8566264231676053              3.038737011384533
H              4.251971893556049              4.125692562858241              3.03247590328129
H              1.5208405149368935              1.8251830196735164              2.6290414377409657
H              1.3662855929825024              2.406191946483936              2.1361239516717427
H              2.618651116557541              4.158171149537441              0.09644363023289625
H              1.9949781777912772              3.7493574672739323              0.029787709979493173
H              1.1578526367864566              0.7289796974247764              -0.7663396917502454
H              1.4532278013941842              1.0071121969440573              -0.12124319323951081
H              -1.3627167173355776              -2.2531449527091976              -2.317748577995532
H              -1.927888037995221              -2.668636050294433              -2.1651575026159504
H              3.655922038139162              1.0841558258087294              1.3216298256701955
H              4.4044410604254045              1.0108209560511225              1.0563039472252214
H              3.6269636569131345              3.8619041443241526              2.7745372510502597
H              3.9789762855430855              4.2058623428293185              3.3703837267272667
H              1.7486658483884154              2.113171078793798              2.832449562264383
H              1.3837373990905406              2.3987153329826185              2.2217436606760477
H              2.4989027114937086              3.703708138709175              -0.17878377215474792
H              1.8767235112731702              3.8885486957640487              0.09285033716128731
H              0.8144755061062754              0.87021246649978              -0.5216350969366111
H              1.513632346904954              0.6295472499717459              -0.4331772080007102
H              -1.1147414791358896              -2.309955580926642              -2.262948040835181
H              -1.780598240806524              -2.616330570379681              -2.226385256485711
H              4.092856401835412              0.9217129787794393              1.3754186475069727
H              4.453176564824779              1.4887880105018199              1.1835886145387513
H              3.5798941123825596              3.8848107654330426              2.932947169217873
H              4.165703780260642              4.424979650768435              2.9929188609578086
H              1.7322477456118688              2.2618236707292283              2.9521791281418914
H              1.2778322619544953              2.2542533849436377              2.3017420551171823
H              2.6826937272224916              3.7605246053074572              -0.176294760806845
H              2.0325073432621568              3.929376843482978              0.11280451081762592
