72

H              1.7961910321361063              1.2258918804212913              -0.4140890666765145
H              1.3045632990018223              1.3024620798494169              0.06528366135546089
H              -1.7418238622443167              -0.842125660893686              -2.380794754256035
H              -1.2921745313595856              -0.8134474345436563              -1.7311478422541533
H              3.8039042334257354              1.7774529291814931              0.9089030347577645
H              4.532071995173449              2.0207710996035306              1.056462148224629
H              3.630650799245997              4.149241392666876              3.1486289028783707
H              3.944509737226745              4.150055563847935              2.4529765129683527
H              1.3474335249497236              2.070408123503772              2.4559438824673645
H              1.7518453519388315              1.7971889189998087              2.9525096476636503
H              1.7895301075438241              3.946810808824575              0.3350924871929142
H              1.4148714812620218              4.0081542629552835              0.9469828055260727
H              1.927393516590717              0.8616394251499159              -0.4444275297211558
H              1.5224629554698226              1.1877482479763541              0.07311530256399895
H              -1.7566715206876977              -0.7129457833900833              -2.500313420340447
H              -1.2471724165270794              -0.6740710177129471              -1.9680968924372026
H              3.84150152773687              1.6474548121133474              0.8778514670042159
H              4.347954259934149              2.192858941245879              0.867258384874328
H              3.6734413485048387              4.568108894158582              3.061013633087586
H              3.8913793694820003              4.405122885164964              2.3918192740149373
H              1.6016188198829941              2.1725900318053077              2.430376223482935
H              1.9188840160032308              1.7919238003581994              3.000771674947608
H              1.724309003164197              3.536974223229216              0.32655528430609143
H              1.5721305622113595              4.146795527955306              0.7802926363566899
H              1.8209275852885305              1.1037484041104346              -0.30974729615756336
H              1.1121007106381495              1.0924455376689024              -0.1643827559886608
H              -1.729334989094116              -0.7018328266773524              -2.6562028524858614
H              -1.1299066317099677              -0.7993999934011643              -2.1060576963556867
H              4.059364344652247              1.6732790133546598              0.6175442951533824
H              4.4590974963659775              2.3664017793515333              0.6758518540671801
H              3.782368305118688              4.716208465451699              3.1622617004721496
H              3.7369618969787832              4.374378520896739              2.4367359420625787
H              1.5528635045320716              2.224988399753066              2.2348093846536106
H              1.9468795229707694              1.980784578940382              2.898844338765474
H              1.9864518863514706              3.7974034871459863              0.29149533442742
H              1.4959929207492777              4.227762924829104              0.6386748414290507
H              1.801680785027636              1.0597103975883455              -0.6115689158982707
H              1.1653736495554496              1.2963669134710036              -0.2215173391756088
H              -1.5261488881564118              -0.5992273542533793              -2.497635213081517
H              -0.8292308902722985              -1.020575290738482              -2.2779427162226473
H              4.160944011482331              1.7968963782064127              0.726549058634941
H              4.391344707753338              2.3267004653444068              1.083322521139419
H              4.067227404921198              4.202434251466257              3.267123556062661
H              3.6802725666327687              4.464315725918621              2.631176759197297
H              1.443783599410477              2.3229305094761714              2.423554233158457
H              1.9474409883188741              2.0369981265192476              2.802893312338434
H              1.8355239107170347              3.6812984310076655              0.22959327648886793
H              1.5897978993077322              3.826721386050294              0.9030763197702227
H              1.3729368584759998              1.5199628490583355              -0.7025811598582192
H              1.7446261397607425              1.3027887743933515              -0.18700825961162393
H              -1.388344358090214              -0.5995831486458276              -2.1583169479121858
H              -0.8324442019570081              -0.8849439073161993              -1.9516763677275148
H              4.351690276776098              1.7168427855933575              0.7169213309326398
H              4.295003451306466              2.4802726012540357              0.6370370151787341
H              4.143602652529734              4.155293054256501              3.1294570035771154
H              4.1002943942824395              4.3558690190422915              2.321881499973217
H              1.6527839853008175              2.1927039191412083              2.696831700035202
H              1.6940140545864661              1.7660241357900017              3.2227604974463993
H              1.8291476921843888              3.6996018384958647              0.34275481427869914
H              1.5257710418631845              4.1171458677619075              0.9563332932564593
H              1.8515086025255627              1.3811057419666737              -0.463289803577486
H              1.2746788116045418              1.2011378917886975              -0.009177864555613403
H              -1.6095701228130552              -0.5008060062002342              -2.1972531531899313
H              -1.433244425752302              -0.9916304622921458              -1.7393776154932328
H              3.877231441760423              1.7416629398397787              0.5019729432209069
H              4.25229128253818              2.231987796951359              0.9090333902280754
H              3.962318589432513              4.1326057934688984              3.2372905726456342
H              3.9622746915232385              4.062845040694823              2.48494546560229
H              2.0305588604385867              2.2052594435894077              2.680878738022614
H              1.4869091171270878              1.784375209982551              2.906834014978454
H              1.9639461831346872              3.90016377979351              0.4940601631668819
H              1.3388074600977191              4.169322967117009              0.7969752977745536
