72

H              0.7592429857034154              0.977280007822081              -0.47595218013346186
H              1.5188186225550921              0.8622624363680055              -0.5134405017447203
H              -1.3397999175393456              -2.0795782117465826              -2.425325897172306
H              -1.6692437878160968              -2.3576847063316575              -1.8923607644509295
H              3.499645120636386              1.1027432504789134              1.203219574891843
H              4.245277868694004              1.3905260153595305              1.302355524538638
H              3.7350184985166806              4.080687094126789              2.460919176047928
H              3.7289853508175406              3.9856800863462523              3.1959856464278933
H              1.3412651862432399              2.037684977558946              2.714332259042103
H              1.9746531995234577              2.247032147302586              2.4246043978765135
H              2.5085007052926076              4.0171842746729265              0.2760872942126076
H              1.8601822984365377              3.9737190481552087              0.5991723671649719
H              0.8329615990801409              0.8099450877642818              -0.6758064515111912
H              1.1811207639095143              1.25767708750053              -0.16533039282216103
H              -1.533649208163472              -1.8367950973993994              -2.3759519789725756
H              -1.7395815396559577              -2.427130530770304              -1.7932999364783127
H              3.561056853729643              1.0070470264321714              1.1969593715070674
H              4.024161719979648              1.5411900096426938              1.0284631028234548
H              3.6148594498491247              4.364501467232448              2.4279354050109045
H              4.163958343504237              4.218767255735945              2.945506091005178
H              1.7597589503125544              2.0390627702578534              2.988575834281136
H              1.6455048359833313              2.074977167577984              2.272351208642257
H              2.3871726706750516              4.172064026017244              0.6169877745962455
H              1.6961898400521105              4.124667384905612              0.46857416439611954
H              0.8902863434953155              1.1404308768493148              -0.43398421200458
H              1.4062509691515594              0.6749150104714948              -0.47855212021191457
H              -1.6413290799966478              -1.7776965237305347              -2.3783591890694327
H              -2.0987560467919972              -2.231724679566614              -1.8882040744612307
H              3.539529377563327              1.0248672330830433              1.0485209263592912
H              4.061292269315409              1.5992210909490723              0.9384555345950537
H              3.8187479870172787              4.367429472929275              2.52591463575072
H              4.126118271672567              4.080874159130993              3.128123856197429
H              1.6013226776044933              1.930071468399913              2.796206329555548
H              1.8322274391292759              2.2910052217971              2.1817075540514597
H              2.4417504017605824              4.199592989012096              0.36964453326023905
H              1.800812711439235              4.333883189826256              0.6591570173973808
H              0.71287235698814              1.0002666951474037              -0.07752621065193198
H              1.2756118144687962              0.7416685237598748              -0.4315348985533316
H              -1.2880195569572364              -1.8849037105102167              -2.2369637100344355
H              -1.738945143544951              -1.9276718061909968              -1.7298462414269087
H              4.078146126076913              0.972477541768881              0.9644802807843059
H              4.133765512519832              1.6419167103550762              1.2288852512137698
H              4.020801229343237              3.917000806628245              2.522336526569354
H              3.916118590830782              4.168401271066615              3.244019263417126
H              1.2586804408869252              1.9603532102798735              2.8921048661451194
H              1.4926375383719797              2.188025550836263              2.281120244534313
H              2.3268579729364065              4.375945351097465              0.07511726060387591
H              1.9226539915462764              3.9840625634786653              0.5570033343678279
H              0.7379093679865333              0.7839703680712365              -0.203465626428274
H              1.3774038679583362              0.9851216010422408              -0.10723115318236359
H              -1.1330522572799848              -1.8291104347404918              -2.2633336496982666
H              -1.6888680671000407              -1.8829993586349978              -1.7087975426629616
H              3.8371098097046477              1.0997616236165781              1.1534321727718395
H              4.1858568907804585              1.752492643857021              0.9184793723481729
H              3.9858412560406107              3.9568877878654996              2.3786787389743655
H              4.02181093888395              4.2442003837452305              3.1729222223318025
H              1.5236795803423677              2.2278834541276504              2.9050224345796605
H              1.9708274412369682              1.9465968214663034              2.4016919695077004
H              2.70171766523111              3.9297672044635954              0.08317283126015268
H              1.9454332731776682              3.8781412415146685              0.2475640144928141
H              0.8431468839713511              0.7145519829123127              -0.24675051100485282
H              1.2080347166875287              1.2116251942599425              -0.606185647952821
H              -1.2742738050138374              -2.1570879783186916              -2.314623500203465
H              -1.7270754703777487              -1.847764046223344              -1.811833749100712
H              3.6421565305432373              1.1922028633972546              0.8972922810439418
H              4.1694481619237855              1.6988000488441846              0.937478522826597
H              3.5820467278435233              4.0401608833994915              2.4366538790328387
H              3.9214373513498977              3.961027558127051              3.117175475053791
H              1.6343075670100067              2.037958471363404              2.988540383326656
H              1.8289077258068605              2.2390392278045805              2.1821767062647215
H              2.7536475346423868              4.041284032926368              0.027754618549508038
H              2.088125289490984              4.022293762433774              0.3866497122820748
