72

H              2.2432988485901597              1.2516397014091318              0.9095218560033141
H              1.566500727741019              1.5446199263920921              0.8026415778038885
H              0.3783669657809429              -1.1973517026675007              -1.926671829929136
H              -0.3827922514565073              -1.1852686684244405              -1.6575544010618766
H              4.980980560392438              1.9860150561152412              0.9709210750865279
H              4.8637495860189555              2.5269126263067045              1.3818027656716767
H              3.857269411461857              4.716213742550104              2.487309860407147
H              4.016893932309368              4.739589690659502              3.2429587123572836
H              2.6473770853901026              2.638543980976614              3.864443242023501
H              2.422093251319457              1.9020202453440969              4.059238732250536
H              2.869852051179272              4.335583632212836              0.37422936452062483
H              3.396107246509389              3.761081315040169              0.3098582226983777
H              2.210714660881388              1.3144490411956142              1.2641534341899268
H              1.857819506334939              1.4757097118705007              0.6687667699063444
H              0.38394571161696106              -1.1666414977538024              -1.9598487970973482
H              -0.29556574245561473              -1.114103328177873              -1.7577410587912192
H              4.911573802379531              2.3697883805935542              0.7039116489900805
H              5.225379959454156              2.5950055080618863              1.3805037900239716
H              3.951052641322221              4.606319491587208              2.348358194696363
H              4.088044347799558              4.918416300470867              3.043483085902323
H              2.271396252314775              2.474516260040683              3.65359968208515
H              2.8588510812578956              2.529302007421897              4.04798218788984
H              2.6867644847431547              4.381058753060712              0.6919975226637919
H              3.0438572934193253              3.7741985295251324              0.5273720439392571
H              2.30779366697473              1.355157368294322              0.7844289654950101
H              1.688875430617336              1.2306441495673348              1.1190601194886831
H              0.3342690507834006              -1.0624323446066368              -2.0258661776456335
H              -0.37002804034453596              -0.9990636801951092              -1.694548961724384
H              4.577562080566541              2.348166748776591              0.43576379159830136
H              5.065840942193397              2.38108086078326              1.0578832352638243
H              3.5033051188328446              4.45988888384704              2.5458094366992277
H              4.022633592464096              4.731384144694787              2.988903730671271
H              2.534405018227846              2.6104349966471214              3.6174638359398834
H              3.0688010779599857              2.40998447253444              3.9653270303834014
H              2.4384786716487215              4.366122817157526              0.4229902227915601
H              2.887793166211243              3.779863979418242              0.40974408801208145
H              2.2176924813165697              1.7559139792670622              0.9944515056456369
H              1.7331522690773504              1.227521100836636              0.9539267237551212
H              0.4677784250238041              -1.204886360790453              -2.233674200863492
H              -0.10031473933506886              -0.7411390216965875              -1.7997100161741046
H              4.6707985841733395              2.0588593197714324              0.7363008396504828
H              5.120674412779215              2.233199980449837              1.4650367534776454
H              3.585305686844575              4.566353139350715              2.435069246589777
H              3.9917228613988343              4.582133009289649              3.0264516567139026
H              2.6508155571258305              2.2436086947390397              3.6568294433398965
H              3.1687723402867887              1.8800824986810607              3.9304695054733827
H              2.477198461973997              4.468013634330864              0.41282024817664137
H              3.0637711902368734              3.961302217047517              0.23034516616895245
H              2.1299222619554397              1.3378120932395778              1.259781179328674
H              1.5175888706206608              1.4803249567592893              0.9634326182067865
H              0.6435256860993372              -1.0204627412094576              -1.907074246383254
H              0.22820441775545244              -0.6472187912702346              -1.5649066312803648
H              4.8905692211387075              2.0382647547364954              0.7170575986886828
H              4.91330989774988              2.1508839488398905              1.4110993938466605
H              3.7195562878964132              4.43196276919394              2.8094775392449796
H              4.365758495698139              4.698814740917743              3.037551524285589
H              3.010357053584233              2.3743274531849465              3.2693027907214898
H              3.03248426871633              2.020550363019221              3.8570488852678384
H              2.7889339383395413              4.71595232057518              0.4172700709132824
H              2.9479479864852047              4.055332964544208              0.16218936069058537
H              1.93109274316232              1.5747203272723145              1.2721348837234339
H              1.4666738169983342              2.012140068475962              0.8266022060873837
H              0.4351757096500631              -1.1986783516711932              -1.6826795058744028
H              -0.09541741790173265              -0.830856945720851              -1.5087011468017013
H              4.7189438897413805              2.2516180409625              0.608187138472007
H              5.030704322931504              2.1384951948821773              1.2714333157934734
H              3.7103772840911877              4.588422841324472              2.7936276488687963
H              4.419338735686341              4.803015778586743              3.058253828226183
H              2.9042921208578085              2.4933208174816923              3.680641712151334
H              2.9341332749303133              1.840810981805851              3.839189006865372
H              2.991744331585077              4.693077915586706              0.4518535249690451
H              3.2135855098054464              4.0509020527027              0.4303729147057944
