72

H              2.3200943791840594              1.697510905579646              1.3143311309846384
H              1.8313439358911925              1.5380937448162784              0.8372855679356175
H              0.2893976202635897              -1.051118698835126              -2.040269234567377
H              -0.515362668617565              -1.0833753774003814              -1.9457632430906444
H              4.613285152788649              2.212548822950888              0.8282916744279238
H              5.020049915434499              2.5660839953979795              1.3583809414561545
H              3.830600243754692              4.6656101147236635              2.4552425173181263
H              4.247273713405245              4.81417548409826              3.0435760796279014
H              2.760088473341205              2.3433683765020907              3.515485257344518
H              3.228344167197343              1.9103085745434951              3.6258862694599774
H              2.5797205378786057              4.522991165289269              0.32988579129389706
H              2.858604270597081              3.8665377878803726              0.2922707178760552
H              2.2134815331748317              1.4553825455394251              1.0386173672332013
H              1.549708175116041              1.8269691953997327              1.159746815710615
H              0.3788972804530471              -1.1444972346262847              -1.9858326737370113
H              -0.2648098815931061              -0.9600418786081749              -1.7696328504614491
H              4.811074952711481              1.9297433374255033              0.7715494497413516
H              5.095265036165778              2.3121121843361476              1.3608287477243417
H              3.6993476462939774              4.711682240738861              2.747641713995059
H              4.389727766017622              4.661327207535577              3.1514244584149553
H              2.7315332357532522              2.1713929794317512              3.38451634893356
H              3.1054387949668123              1.517386982948953              3.496832391625871
H              2.9432226975152864              4.6047277387573375              0.35535165055066104
H              2.7484675251176403              3.91467192625797              0.2499473574828668
H              2.035322162575723              1.762291830581402              1.2159787494207026
H              1.687482136364141              2.278971122225288              0.9055847971254845
H              0.34553091299285454              -1.2749922090831072              -1.6046890598675558
H              -0.3436644897778929              -1.1398272478433669              -1.6222921318213979
H              4.984947416870735              1.912064701267717              1.0429532947642406
H              5.045816733684492              2.567485162263442              1.3083933361044198
H              4.2544518183537825              4.592003297343436              2.6305104423198187
H              4.398548921032025              4.731622364570431              3.3026234919186783
H              2.426816144063665              2.4600270306574377              3.6746077446984255
H              2.949575502515882              1.8864878929991558              3.7018632895029566
H              3.1569702647823017              4.616150617598217              0.2608023532272105
H              3.015055817809134              3.9487898537298167              0.5225493611328184
H              2.175137257582533              1.5225464192423237              1.2309841743560521
H              1.6922811279241925              1.795056846707661              0.748443395787553
H              -0.12124042561709804              -1.1652053116525354              -1.7695110665512996
H              -0.8187931681532136              -1.192698494015482              -1.6410679714851588
H              4.870696292144256              2.13675381332745              0.9711404842297084
H              4.892797922344837              2.6438465264517577              1.3968740258607888
H              4.290116694255014              4.890762562888892              2.4623941482803287
H              4.20603030896934              4.9044784875714384              3.200685756435207
H              2.3300933104017063              2.531254057259966              3.822527766002787
H              2.842765997185544              2.0282527333988263              3.75309338538199
H              2.872142982825534              4.259614182246199              0.1474655001525167
H              3.1659754158427456              3.8696537807838873              0.6986394151528922
H              2.4308296842889883              1.4588136466245492              1.1810183946553636
H              1.7791240223765308              1.607311613491707              0.7812873544752746
H              -0.05140504081163137              -1.1671138907173302              -2.1044870412829733
H              -0.673315549545272              -1.3482604182979891              -1.759215711437604
H              4.836874403290379              2.1610020807677786              0.8654209335554672
H              5.1708178501149415              2.75852911140312              1.103380441366522
H              4.012702677022693              4.9722106731970666              2.366408708144427
H              3.97247740739132              4.794441420247001              3.130996159030117
H              2.203418248457929              2.2168756817597406              3.9794557800070853
H              2.7706313208388904              2.31685287376104              3.499758666241038
H              2.766413478401324              4.287516011537148              0.2563348130806369
H              2.8970750151755946              3.7055841266362215              0.7487892103627611
H              2.3516669417516445              1.5289044482330958              0.8549080863490108
H              1.6923785996005696              1.487914062585571              1.0709728038729756
H              0.2191263523498427              -1.0175328089211453              -1.9621125838240243
H              -0.49708380160892757              -1.2903009152790539              -1.935373500155075
H              4.804130219216087              2.0859094317236107              1.0116760886363578
H              5.2326487316957495              2.7358207297862327              1.1553004341765818
H              3.775838054228039              4.771294263535199              2.440144220473801
H              4.114101883557443              4.733722967824019              3.0551019091141005
H              2.284909313776772              2.594700271306142              3.64109297277235
H              2.982019615789736              2.3302611299860883              3.753872508862801
H              2.4826134658326757              4.25422013744732              0.46256435771322557
H              2.8959426736123564              3.6335910639158917              0.39557539844765693
