72

H              1.1252346726411084              0.9713658340013546              -0.46202390413150396
H              1.2985782099633287              1.1178026774656802              0.2938565037858174
H              -1.7008650421731561              -1.4336444577329006              -2.266242334445802
H              -1.8599735751335913              -1.555703253105374              -1.6350234767123533
H              3.574569449864918              1.501221650432691              1.0570543408000412
H              4.1067777709645865              1.8804045218017025              0.8109078639873933
H              3.8720301914895354              4.648691632047748              2.6382536959017857
H              4.030224437055691              3.864311274832751              2.5687714122831222
H              1.4188784935303425              2.349997978336281              2.4672861719789347
H              1.9084827444597405              1.885908259995948              2.721546817095703
H              2.1893955180620126              3.872297307559829              0.7633397351299404
H              1.548418934387637              4.22929984280957              0.6601398066807078
H              0.9763803289319799              0.9087158286960718              -0.5292212556393237
H              1.0926104623785606              0.9347476816511097              0.1385995740249943
H              -1.8907515486448396              -1.44179939106352              -2.559133288967849
H              -1.9676533021097868              -1.6411466092564009              -1.8918599391642372
H              3.7612889910431297              1.4534216584730484              0.8168183613756413
H              4.1006854809449855              1.7738437943168512              1.2760804319008219
H              3.82759929592719              4.709449199601942              2.7150628864813955
H              3.5128473481554994              4.0173585073140545              2.817649942658669
H              1.0194632264166168              2.347811746409023              2.570143780460135
H              1.7156911063588265              1.985475592581289              2.4351047199125784
H              2.117922820868718              3.9719827700864143              0.49086022552166414
H              1.433144767536699              4.021719208696056              0.6769525828355684
H              0.725935675495266              0.6723544435325606              -0.40201161740718255
H              1.269292894613659              0.9138012127083999              0.04015018510549061
H              -1.7216738289378295              -1.337715440316824              -2.715778740355542
H              -1.4624633153975262              -1.5936565895274097              -2.0530756499769462
H              3.8991004724187133              1.3877783780558257              1.0675582983631835
H              4.321928812468622              1.9338150737864908              1.0198028908885453
H              4.167643331900484              4.795687564145234              2.7452735175173433
H              3.609689102053174              4.294384398011402              2.6802756705054778
H              1.1842703691623244              2.2583485153682448              2.753078823757055
H              1.7201220963068964              2.0534968933872664              2.342995414324368
H              1.7846114048609076              3.8206110608286554              0.26031046093614935
H              1.6641772446887517              4.163293838407948              0.9233914102182665
H              0.7422118650623734              0.6551361291543641              -0.4698333188404045
H              1.0904491105663483              1.14637679198617              -0.008236208781255257
H              -1.4704507963980658              -1.0763259795561904              -2.384057988151991
H              -1.360229300912028              -1.458467824630276              -1.8754461596335206
H              3.9279720578547734              1.521404584313323              0.641631296006998
H              3.945055992983526              2.2379878356069773              0.7852444225291586
H              4.35919637499125              4.520898747169448              2.5640290083451105
H              3.817274520765119              4.220512299594119              2.929844184295488
H              1.4159837496134673              2.47511732703498              2.9175375118993014
H              1.5972035614114346              1.800130224143302              2.590269332603597
H              2.091690445376397              3.841530399769286              0.2286903519387943
H              1.7150575750811514              4.164761032867228              0.8335677650094465
H              1.1725466703489              0.8653493162994111              -0.6063683385503397
H              0.9261108465868506              0.8128507584981266              0.09455479027590112
H              -1.4305823129219741              -1.1986852864914155              -2.3688210005019172
H              -1.3993170552724083              -1.6856152551753751              -1.6720798218244084
H              4.0161760271960345              1.6291402501508345              0.6935687012780166
H              4.3507418511996745              2.0977935357025626              1.1144334859064384
H              4.397813134887154              4.227387182041901              2.7401844566068605
H              3.7782230505646717              3.871974499626992              2.9800880238488614
H              1.097244280325143              2.349827755175916              2.605592510553737
H              1.8018772627509905              1.997784349665956              2.6091728285632745
H              2.3910570221494782              4.172309215469472              0.47180319102478374
H              1.7204959816396221              4.081515675788609              0.820920988627876
H              0.9310218153231059              0.7501315545308208              -0.2984892604108049
H              1.1973745969443754              1.4207474093474213              -0.14103451242495788
H              -1.4248868833967159              -1.3904653152682511              -2.274684862879248
H              -1.3789080541510328              -1.5000771897790983              -1.4748438460572086
H              3.7896170485517513              1.479562597888899              0.8361731926004077
H              4.2251989466178275              1.977182129261887              1.1296157915176215
H              4.231364772843651              4.235997102823186              2.6874906658711564
H              3.7271672785569248              3.7419887890665318              2.8947972352085443
H              1.264828233492951              2.3756607636517693              2.9941486738852094
H              1.4646710836481696              1.931736933249855              2.4454411758104464
H              2.1627668298584695              3.9972488177084324              0.4178144832842916
H              1.5715074715690567              3.8107004821028565              0.8567969396227514
