72

H              2.563881410597243              1.7027057286330043              0.8968089385141145
H              1.9123044854177675              1.5071707175238698              0.6059112363115916
H              1.0009272633554636              -1.0033095712176663              -1.963567473472903
H              0.4686423033124377              -0.6780634515502324              -1.715563639148524
H              4.8099218072537955              2.6289810189126857              0.8027409039078498
H              4.661288211056486              2.1921985625414835              1.3901352319155482
H              3.759576809499586              4.632411104793564              2.931508947842697
H              4.47560723797855              4.7344610740036615              2.941016188256695
H              3.3745832544725394              2.099559157829879              3.4341301110697864
H              2.819146989895728              2.212953696416472              3.8124887744481084
H              3.004968330223521              3.810232452740216              0.5914310186158094
H              2.7748755098422024              4.287753352348838              0.11480548126035318
H              2.419480644788225              1.3653245216838188              0.9476909040377549
H              2.0053906943989346              1.833831528461973              0.5965360207633718
H              0.7516089165964712              -1.3235911854982343              -1.9752380019322084
H              0.4432011196590585              -0.5970364054782538              -1.8458877430601186
H              4.558489144485948              2.7181199635946465              1.028001896947435
H              4.931509053562867              2.0207194183383153              1.1627802083795227
H              3.677962986706167              4.524056548017859              2.9585301126457484
H              4.380828526529125              4.48946323370928              3.0000130102477174
H              2.95071684124596              1.6033683014004105              3.541686481897308
H              2.9043098833801015              2.018713502595552              4.205737164448204
H              3.020766662865626              3.9145269699777177              0.8381918449886668
H              2.7111497066316748              3.965337868028713              0.15721365054433772
H              2.6361594955711993              1.2515843711863206              0.8937955735318812
H              1.95862036121086              1.565548977751407              1.0415948252054184
H              0.9029259099003697              -1.0988954126315502              -1.7282335133708735
H              0.3453461161910375              -0.6031142058257194              -1.6832568295957218
H              4.597593398111402              2.429610850773483              0.9252967042512431
H              4.855541499066802              2.0724663654729825              1.4535238406736253
H              3.8972614348381307              4.09223173920859              3.057691879363534
H              4.479193905755235              4.659930194827938              3.033498291993557
H              2.929170580721375              1.879453823546581              3.4109452670951597
H              2.8260182551418414              2.281876831541446              4.066793646140849
H              2.707386298146539              4.01008265936938              0.7503757411762864
H              2.9290361007800843              3.9998344007080475              0.05657195381717382
H              2.282021336327669              1.6994865267080865              1.41608471956951
H              1.8780459767655773              1.4826622036652926              0.8257912474038167
H              0.4854087457821348              -0.9071809497890081              -1.6364765629410425
H              0.2089509984084705              -0.30888597632133463              -1.6031020344849738
H              4.54761073067133              2.449170278792884              0.8759094737035047
H              4.866603571783345              1.801946597729073              1.0670148533578194
H              3.9274770616089403              4.2985697120663495              3.0031792029794477
H              4.374010190485767              4.948733935755697              3.0229004932168886
H              3.3548538381204698              2.3036639559546317              3.179343087242024
H              3.0591757614273605              1.9580472838406247              3.7397761088444934
H              2.4239103463114047              4.1076855950673234              0.5031025179020516
H              3.091570588889111              4.390202883418466              0.3623524094506054
H              2.4568678594092876              1.4117939376524464              1.0850727163476073
H              1.8745772726943963              1.7894936060243356              0.7289427013785652
H              0.6739634652152684              -0.9435866655625078              -2.0144412727173613
H              0.3170872133507595              -0.37189320137650683              -1.527968704146023
H              4.362558242197605              2.1364948633564187              0.7106163459549182
H              4.723424417368758              1.7800573728943623              1.2672249060567895
H              3.4944430409489535              4.661174909090332              2.9898675828863586
H              4.196050841441256              4.742173451908227              3.1195011695388972
H              3.3840431260137267              2.16044142149421              3.235122283981159
H              2.822760149788361              1.8439872402932063              3.696551486553393
H              2.638934075161938              4.111363477004707              0.5457224660785416
H              3.0083671781934482              4.29826111502449              -0.09189987041750787
H              2.4781539277562916              1.7529358335655087              0.9286655185494406
H              1.7732798062167556              1.6554450263831713              0.6673387610646873
H              1.1339049324560362              -0.9989355655946521              -2.0395800482790625
H              0.490068362400744              -0.5329462061414297              -1.7336209223664265
H              4.84175338579669              2.3290909267326194              1.022594933471379
H              4.935018032287866              1.8834942154108754              1.7388294445487358
H              3.7062324053694367              4.984622132023241              2.853161280591035
H              4.405121008702439              4.685800182924341              2.9430536597172505
H              3.018176627548558              1.8854433414070573              3.243770084317698
H              2.9976842708555536              2.132734589950144              3.866857724037071
H              2.935685291750596              3.955819569371284              0.6419054394506141
H              2.8989493346914434              4.469276206573834              0.06751134825739408
