72

H              2.350435763012472              1.5554947661171117              0.5366033763776273
H              1.6599547019453984              1.7252897535857932              0.8399456412427428
H              -1.2423601562232252              -1.321869030217697              -1.7168238063602748
H              -1.446900108145391              -1.4999669381387764              -2.307643168393603
H              5.213982506071935              2.2251916669951544              1.5009537845394032
H              5.156535052787114              2.494496372595728              0.7593252413907158
H              4.661798429789693              4.703891773274807              2.863858106872818
H              4.431404905563777              3.992582731602144              2.819119927607169
H              3.0648142638369156              1.6932277341257322              3.7964583066167483
H              2.671828957518266              2.159562578794243              3.5351293979894356
H              3.1088290844842983              4.741738941627392              0.6815606074235926
H              2.9887421427628413              4.21032166352498              0.16223698549785578
H              2.2287049811793933              1.1129433042732177              0.5402317914925385
H              1.7204411946754667              1.5526639070865795              0.7289894460338929
H              -1.2540478549813978              -0.9476831976030188              -1.7239817606466377
H              -1.242023840586016              -1.5349628483446427              -2.2928555345573267
H              5.2710084234595875              2.4528220514317254              1.4619274034419725
H              5.1093297630841965              2.578400751388356              0.7063548558559988
H              4.527258654268485              4.875714862469962              2.7135042346515528
H              4.589562290299092              4.2000919482240135              2.9186651663756007
H              3.009562876079627              1.9600942361942346              3.921999154868723
H              2.982811608707781              2.609517968162318              3.53723525654991
H              3.0230493862424916              4.433867865229956              0.7443639147270226
H              2.6130738574026697              4.380907256165538              0.1417487715975351
H              2.4290370012965994              1.067382668678242              0.8355055325281934
H              1.7718219578426262              1.517552937453413              0.6145279392137117
H              -1.2089320561008876              -1.067878914263934              -1.8961998260576631
H              -1.1682772388658378              -1.6170340492633692              -2.536234203311234
H              4.909803173028915              2.543097760513913              1.1776030376570439
H              5.233420186667958              2.484607355117563              0.45852311591406775
H              4.163805696384102              5.00440099491442              2.846029459405607
H              4.422597598096669              4.306183433244423              2.856641204003077
H              3.42895500445692              1.6269626206241883              3.645321633143375
H              3.046202039640089              2.1776004645385316              3.450927851759097
H              3.0908824042327856              4.617641815939687              0.6480452987477417
H              2.456184928477608              4.3692008129861035              0.27504076786542686
H              2.484297359169187              1.188795573886016              0.7917361247516724
H              1.8522643999843649              1.5656646807376182              0.5619206747950439
H              -0.9541356187178756              -1.3140612466981956              -2.038737084288713
H              -0.7735037755443095              -1.6687048376211184              -2.641751373575664
H              5.0342247173221235              2.2403080749519932              1.3287462619425847
H              5.248665238714717              2.325004584619175              0.665613311814528
H              4.0844118977927915              4.772911372231629              3.1046595352334436
H              4.289771739068951              4.092167275931514              2.9419683369231553
H              3.133203436654074              1.7574644871754617              3.7507712814333116
H              3.1666464055617114              1.7906821623936582              3.0293234426515463
H              3.2472423991927952              4.349858796783274              0.5955851047041864
H              2.5428312857588193              4.050302719689954              0.39031649420595077
H              2.27877478254311              1.443004328215129              0.8567546762573308
H              2.0316823384099068              2.108869104238157              0.6732183730227973
H              -0.8671165834747497              -1.4332970170436323              -1.7027743127244457
H              -0.9224425822025454              -1.4873025579404615              -2.5242104244843966
H              4.749641314955722              2.2272813721237634              1.3303222036230182
H              5.1977390649246376              2.617654755497059              0.8622785489526785
H              4.541200920691891              4.605780805875019              2.8183528044058366
H              4.703723429376314              4.032112372037568              3.150805812602248
H              3.220721421795597              1.532021721306336              3.53584716914684
H              3.2965011376250275              2.230176112246438              3.3094507299616405
H              3.226030784708865              4.6298027563558595              0.780109082533492
H              2.6813973004257994              4.3407603230183405              0.3777100771952419
H              2.090671360312404              1.5775921635082553              0.41931951709140924
H              1.9464036727758551              1.7763242177318483              1.1451793657435951
H              -1.221140965699125              -1.368331828655489              -1.606130106662942
H              -1.4327607078823437              -1.3858134265536282              -2.2534546568904052
H              4.857191674747745              2.166299536933647              1.2781046122439605
H              4.863008977862822              2.5846006922585194              0.6078083205246821
H              4.621742053998977              4.6659193476884075              2.667758412716274
H              4.617405531926715              3.9892622837922906              3.1566181857644855
H              3.385718288899316              1.6486194445009537              3.713932645969368
H              2.9519585779020585              1.9243310308361807              3.190974303091751
H              3.0973811501907833              4.6521018649063475              0.7600810513539761
H              2.8171489146917987              4.252007522462253              0.22637033671939372
