72

H              2.194044272089365              1.271369575843487              0.7790070580163999
H              1.5951804831751686              1.6592946002547093              0.8631426848802518
H              0.45087755548767766              -1.201302537770115              -1.94009690648697
H              -0.225941985696604              -1.2737375538397917              -1.76167849853379
H              5.077380902204423              1.929857740821184              0.9556971315762657
H              5.002234772279636              2.5389792489534866              1.4362314150164146
H              3.7204456742149365              4.761267403014405              2.535770886436041
H              4.096035666457009              4.643769168211076              3.1466572929822707
H              2.584369288032381              2.558640037292403              3.8146809139725883
H              2.464621049574714              1.912357850297443              4.033645289152275
H              2.9019384654035885              4.378107868327317              0.4546047265328812
H              3.2370673428321326              3.7499654721153455              0.2428059426949226
H              2.219127662875373              1.3312690041701947              1.2659947726649383
H              1.8507429765042538              1.5508776887298439              0.6379273718284119
H              0.4538426438644394              -1.1904499253787162              -1.8639887670057769
H              -0.3572554132092385              -1.2448091961782086              -1.8052816916093977
H              4.968676192282707              2.37152210770521              0.7860365733907371
H              5.176524739952504              2.71408950759413              1.4023104196777176
H              4.093327634445528              4.51935231146519              2.4082388059563553
H              4.135032414252924              4.8650615771991506              3.0316696878250773
H              2.2894857308246763              2.531930118518435              3.6471777749338776
H              2.844237730678552              2.552702312014868              4.180029859006249
H              2.672524995344887              4.392969549809043              0.6206811923627275
H              3.056399919934095              3.7694884671595865              0.4582927593641601
H              2.270895222728622              1.2810258201774722              0.896040444071652
H              1.5925491434041898              1.1491948536428258              1.1386396325522803
H              0.1690744247832818              -1.107870824613239              -2.0205212057126416
H              -0.4563742339986247              -0.9682158792957645              -1.7234127136914181
H              4.620547856155671              2.4493169315624783              0.48018690350466225
H              5.0500950402267435              2.339161780176463              1.0163226371323137
H              3.6034279919655163              4.497305131634992              2.50833431099952
H              4.045306719668226              4.786394195272635              3.0668740631483105
H              2.4165470018825843              2.4199694748490823              3.6273174982129
H              3.140888288694936              2.2827836277226683              4.0022265412709235
H              2.4577573149177367              4.373237820687805              0.3915073511723051
H              2.908469479399581              3.7757568344581216              0.46706961321558677
H              2.2517008119784814              1.7091893395342936              1.0296805976528136
H              1.6260833945088458              1.290861634010978              1.0508972010505107
H              0.36022383743947217              -1.1731956595078639              -2.1259969328522623
H              -0.06135230454823047              -0.7920244034350861              -1.7423864012030996
H              4.715958001742749              1.9915761668495562              0.7298732718848863
H              5.144838607512198              2.2455031101578027              1.2862404176532738
H              3.6147437928378325              4.525410632935707              2.4636958289339614
H              4.004975795428086              4.608369592111525              3.1121336682164067
H              2.433792902530068              2.2458781498748213              3.6973074697851604
H              3.192318717623463              1.9460051483048197              3.8622862528596564
H              2.6170566255423293              4.515606084254058              0.35777748613143073
H              2.983813191948652              3.906657533170542              0.3945658243620327
H              2.1592235407517584              1.5240399529699953              1.2627168975193157
H              1.4459292598472313              1.4932838764428862              0.9580675934512006
H              0.5966494360687099              -1.0247116366781799              -1.9026683933070305
H              -0.003344913205947587              -0.5782891238066706              -1.4957387737073773
H              4.820754202036805              1.9905721774079825              0.7392728169286402
H              4.913590336899896              2.1824548247026203              1.4846250414748046
H              3.733712280184013              4.513954009763434              2.7271524953972257
H              4.354902611954154              4.789261698478258              3.0647771567851927
H              2.9521375817640174              2.5785990955622022              3.263198600574497
H              3.0872931080644554              2.035163367648938              3.8402849005359445
H              2.6828840415284674              4.680560853370829              0.38690369071064096
H              3.1131664140334165              4.0231185179165365              0.26286867863184576
H              1.950102352659734              1.5851715273348441              1.2940545820820037
H              1.6458730267655957              1.9256319093841063              0.7516989869775892
H              0.45471075965366753              -1.1923587953481198              -1.8835079108250024
H              -0.22559630916045648              -0.822247202780164              -1.494072207687206
H              4.67180693969235              2.198198088831814              0.5799363750424653
H              4.9382870087094926              2.2313380195881742              1.3078615828946563
H              3.677528234257946              4.698138325390982              2.6988275333955905
H              4.297433697007566              4.838376461920653              3.0344042925938277
H              3.051841039349255              2.558525695651707              3.6858118852394157
H              2.8681933876328403              1.7325561761533985              3.664664602272719
H              2.9379488849359854              4.752277007590582              0.3702602970651678
H              3.193856004265843              3.9868741494345716              0.406970655234697
