72

H              2.1605552189554817              1.373762184787553              1.1116387473719
H              1.5474980935829292              1.7194968945225424              0.7899849768392238
H              0.39217741748702634              -0.6678138261881102              -1.6989603458141318
H              0.2303089849186478              0.03958100448025676              -1.928364602029077
H              5.685837687600419              2.5568840015231666              1.2817041982374384
H              5.287891424144777              2.0095609604097895              1.0265415837768068
H              4.030141805991217              4.980593451740485              3.099847566707341
H              4.360607182174998              4.280230438156028              2.8250707956049452
H              3.17935770371032              1.4717569640620116              3.1053623066183036
H              3.326986196489737              2.249088924525046              3.0346450338614774
H              3.2448185367081375              4.215486081836938              0.33569360943860777
H              2.973795168195782              4.662491701823797              0.8504305422123802
H              2.407061536995964              1.4320510728516012              0.7122265011564605
H              1.8980525267831438              1.973058314736872              0.7186792984845906
H              0.2667432452813239              -0.8094597888079553              -2.020696444547267
H              0.08288035828293781              -0.1698976976177576              -2.114213973225007
H              5.436914422194231              2.5582977960976963              1.2797749165944732
H              5.239701793176914              1.911549320865539              1.0195599201442282
H              3.7192033278725627              4.777831140460562              3.0905222158752594
H              4.263416486010567              4.348946737436885              2.8343324488953043
H              3.0451342801065935              1.4052671216830712              3.1925233203766332
H              3.1938838590343743              2.116527714696747              3.1778093109445518
H              3.114488400017151              4.206842488454237              0.705985727657405
H              2.673739281232825              4.557482584200756              0.287793268109191
H              2.4752103030384123              1.4613122787852628              0.6948106997286836
H              1.7373360250016392              1.5712828321649497              0.8705966846638886
H              0.49731527628390354              -0.6431609967083011              -1.9461513354196023
H              0.2562769792519969              0.05308774026674722              -2.3373977528041627
H              5.618887235860512              2.505128409574332              1.5498405034755551
H              5.1223360026758336              2.029105736463684              1.1765297698540618
H              4.022947136979852              4.712052072176976              3.136439555497208
H              4.178870322082248              4.272191627110506              2.554290975185161
H              3.072861982613031              1.2688999191164239              3.228318241211091
H              3.349741627599798              1.9526290530855406              3.1849771195167276
H              2.8383230396082313              4.158720249600769              0.8155396377275544
H              2.580168872184807              4.6557806049628505              0.37029606396545306
H              2.262450811413731              1.764930728426983              0.707554781995399
H              1.5812072935965795              1.8959521763704448              0.8895786439568202
H              0.5754373633807834              -0.4417916545868218              -1.7687689853773754
H              0.5309429232512755              0.2729988665382923              -2.0984085719655043
H              5.605777700377736              2.550058444861537              1.077060802730763
H              5.032322132734871              2.124809055279764              0.8781996631151742
H              4.035605694847275              4.516814475398489              3.097459941243507
H              4.268694924424542              4.19736382297138              2.418087930963096
H              3.800688515492698              1.3707138174767282              3.3542192357245413
H              3.1740478036662685              1.713648394455974              3.2488698384980634
H              2.7913241737531935              4.0093017671030315              0.5908646908167168
H              2.8279639049250487              4.7549169369243325              0.7333530633148306
H              1.992073640121174              1.491974224390177              0.883560125706694
H              1.415818918732227              1.8948625086607107              0.5888294946066609
H              0.43622634250424375              -0.41566035305133586              -1.8060791517274823
H              0.7165235042929344              0.1908880260281897              -2.0127177567792387
H              5.330172268242225              2.3666386630810825              1.5391410871939364
H              4.943270551867028              2.1562539843589716              0.9605617085178746
H              4.228375145630952              4.672353385476681              3.133854919920664
H              3.9254764880427997              4.0538679288741              2.913754147976061
H              3.474164633607571              1.0144658224929393              3.4134847825534873
H              3.4771721317656894              1.7200925896904151              3.3315344377225644
H              3.068891914039416              3.930936285744878              0.48176091643139185
H              2.926286705914691              4.6758910404702645              0.5870116271164734
H              2.1396019953932788              1.3234184872912074              0.8475350785615285
H              1.6219113917382595              1.8530509859597832              0.9954254845616934
H              0.7502321451620282              -0.6119522122197362              -1.7407392366306629
H              0.5658573376313286              0.06648417608495669              -1.923666461984617
H              5.492262316509139              2.5412270132831685              1.4688945553992259
H              5.030739007886041              2.074542055876621              1.4600907889481378
H              4.299343147764875              4.785151344195709              3.172899816945913
H              4.268456876388626              4.163834878540846              2.7055461299258465
H              3.1896987898085727              1.24781184526294              3.50152334329483
H              3.2588418983860534              1.7998662383151898              3.022649572902057
H              3.46059537459596              4.046008852203853              0.5419478667699064
H              3.072102670755824              4.675577673572851              0.6130289513143443
