72

H              0.9346939344302883              0.8625975906834077              -0.2655346594330033
H              0.9065014354902363              1.40029646163671              0.1434903782605598
H              -1.3725185382513865              -2.094367242092202              -2.024078430633412
H              -2.041519971067952              -2.127572901261438              -1.6895402819542986
H              3.5764079617079036              0.9655809959687144              1.1304967571920428
H              4.1160551334478015              1.5175565154695068              1.0131843407254046
H              3.7595934853352313              3.9905019726700215              2.6764370878464883
H              4.3434912221969455              4.106440600362155              3.0196387634649287
H              1.6123512536551792              1.9270049138015093              2.9115078524783775
H              1.7166502477374996              2.210602895201455              2.163802928198564
H              2.530382276282218              4.0860219073859225              0.3452967240550537
H              1.892797960004673              4.004629147541589              0.04631374064803721
H              0.6795406714153724              1.0425728083104662              -0.2596151305702966
H              1.3181740342276957              0.7042253039557117              -0.20173733544971997
H              -1.3383271832821992              -2.2594921022549475              -2.3450381595018857
H              -2.153809436018144              -2.223753136231208              -2.020510937933018
H              3.8220155695331135              0.8715279346496727              1.1632191334538526
H              4.524846172915341              1.4005558375530927              1.2074815764088231
H              3.65733521181415              4.061977348966017              2.6165743316142636
H              3.857846348486902              4.108953050319818              3.3342304380267302
H              1.2926496535759422              1.9287681153186274              2.5078997916591694
H              1.823567593051641              2.355113932981785              2.5026056925937685
H              2.600432428590038              3.9290987684376137              -0.24705055368904452
H              1.9924733557014038              3.9979964463956277              0.20493115245254306
H              0.4915483045430983              0.7942381534736014              -0.3727522788357848
H              1.208189442405314              0.8072833077229421              -0.24135384412318017
H              -1.0719323926075115              -2.183659876579857              -2.5629053677946634
H              -1.6345219463763532              -2.298642890383567              -1.9879031894168757
H              4.0494066901490395              0.7806121226862682              1.1905056072609763
H              4.317777909450191              1.4535702759190157              1.0509347055831406
H              3.5827413839989313              3.9179022369257037              2.6060952147160026
H              3.7523216376636364              4.368239730490029              3.1316815740256394
H              1.778191136259361              2.1575096276820465              2.9621886599440255
H              1.4041680018834002              2.269230444951837              2.3306315252837293
H              2.492292487622366              3.9475824965871467              -0.2663882512975112
H              1.9683011139869577              3.876111616599109              0.21030466876568651
H              0.6633121275813206              0.9384458361572323              -0.31590024948639167
H              1.2924801568066033              0.7479971663844033              -0.6020212586193612
H              -1.1240857317083373              -2.077218879792137              -2.4044322258418442
H              -1.6559573186868444              -2.392821865486638              -2.023845989357452
H              3.5750081995222813              1.2166915789092851              1.2709684318921515
H              4.094658545305197              1.4207085750611579              0.7946115029455693
H              3.681812328882738              4.032072791743677              2.604801310052164
H              4.229030308965469              4.270105185920709              3.0172150732697993
H              2.1394860842604877              2.324475682521178              2.9439523204967837
H              1.679233430401367              2.061340598781373              2.316376779255573
H              2.6991325262905836              3.8005950088673637              0.1551686144304479
H              2.098688024506874              4.135004522505487              0.3634964030248408
H              0.8446427232290444              0.9090335916593952              -0.11297392083152998
H              1.105572602121593              0.8048401433234982              -0.835281392138232
H              -1.1753173877976966              -2.2494029489992746              -2.263979143710294
H              -1.75193524990871              -2.391206392868676              -1.8021251908066092
H              3.8201931939131493              0.9352547037092233              1.105237526558349
H              4.1683777791792895              1.5784416555402756              1.1943058408363216
H              3.640463460500629              3.774072113366682              2.77421703927159
H              4.270800370189719              4.088132311573673              3.099597548951933
H              1.6134743341191338              1.9333419037155894              2.869888189905422
H              1.357143368371943              2.254231492616258              2.2399919700015345
H              2.5990350928514396              4.415420361284575              0.19663743701193256
H              2.135641263623045              3.984683539787978              0.6480133867031572
H              0.791368530532088              0.8708990678683602              -0.3398552206671827
H              1.3448281719674628              0.9758069864439429              0.07960985664812269
H              -1.305767865025551              -2.0844323835341534              -2.1414737662962438
H              -1.7088402058006265              -2.4316101484244834              -1.6891485893785108
H              3.679621489017582              0.87550236110906              1.390332447052691
H              4.226589599234071              1.352392316550535              1.137354875214617
H              3.9000487538525457              3.7702434683918407              2.6904650834025716
H              4.293388110570059              4.118759097446224              3.171343697890678
H              1.3397282335064125              2.0142540762655274              2.7041955807745808
H              1.8521806082330967              2.197935817585615              2.2909743586929503
H              2.423576978292016              4.312243654863439              0.5053831620134452
H              1.883808423382607              3.8419643452116174              0.3601433605820235
