72

H              2.105913802425221              1.9912308087320596              0.2611441555921586
H              1.702419456706138              2.0464931890936335              0.9019623014984081
H              -0.629838018016066              0.08068263731434218              -1.56755106061573
H              -0.20800909611747304              0.30551302249812284              -2.3004413901240275
H              4.580228337939542              2.0255392083952057              0.9212003043727499
H              4.4539005152748805              2.3961830613681507              0.3156826688945572
H              4.216048726832258              4.618297290795558              2.870216360737462
H              4.134993311472709              3.9837849738370075              3.224893889972282
H              2.7297613628043504              1.2164624891774316              3.519853416834248
H              3.41152903400987              1.5814682964737061              3.628990469468578
H              2.4597216345452564              4.609438063584215              0.05445790869362434
H              2.6429099200703576              4.622438898556314              0.7615174592228445
H              2.1929820424634134              2.028091822599145              0.26848386228499516
H              1.6426005936893853              1.9142686096042538              0.8344870236905987
H              -0.6078581565647055              -0.08782081381216549              -1.9712933664479892
H              -0.1764656911644483              0.44506363665637555              -2.1969818936141525
H              4.7641278632518524              2.1725603196405077              0.9414873661381594
H              4.195528233610296              2.474931181814919              0.6676022287171454
H              3.963732367364418              4.678140120578008              2.750340954705526
H              3.903292796691058              4.225229133899129              3.3510092810397563
H              2.900303477194359              1.3614061163728095              3.206732200961586
H              3.247954794867161              1.9945619087105984              3.357127727645179
H              2.973570123145563              4.321569795429062              -0.06064493781883219
H              2.611713319210604              4.646102939851332              0.47676630147184534
H              2.1857704125433273              2.125310966517548              0.3010832513749056
H              1.6966894150940506              1.6255174832833754              0.4848174933837698
H              -0.5468445082226486              -0.13788507179813156              -2.389657756781917
H              -0.009159977638248511              0.30961074490539264              -2.410672978607735
H              4.818695580409377              2.335590575509338              1.1160198522146323
H              4.484012406879224              2.470847106395178              0.5129730793452092
H              3.9082456354023667              4.725236046732322              2.70548917909771
H              3.934788220006243              4.445121908005753              3.361253687042003
H              2.917894014997672              1.34319474549259              3.0309740370969056
H              3.2039390975477047              1.9650345538256921              3.307741957388518
H              3.1214796289571387              4.467204571170787              0.04785238736363144
H              2.5615107814811306              4.449208994253535              0.4762292741836917
H              2.3304112390133835              1.8975596129979553              0.3229764720301986
H              1.946024798153647              1.4159222139036856              0.7564364080873726
H              -0.38294242620020824              -0.21641185987156678              -1.997857086444108
H              0.17650992919340341              0.23337300714620585              -2.3437061299350526
H              4.543604767242901              2.1162290605778904              0.8993306351245228
H              4.514867097698102              2.701788063485039              0.47434967582368237
H              4.2005399426661265              4.5291437971418596              2.772888376229872
H              4.049621270724452              4.473660375426923              3.452246417506226
H              2.860669716769483              1.491233205195615              3.3936833146707603
H              3.1073527634214244              2.0716988190727283              3.034308205779603
H              2.7514823734789546              4.754106245215979              0.1029523234737874
H              2.7037383185232158              4.195903970364879              0.534212310885959
H              2.269593750449115              1.7197174229920233              0.3529930826927084
H              1.927118540888874              1.8007805986618448              1.0023858380729933
H              -0.6992805937932469              -0.09531440957238943              -1.9129053584262685
H              -0.15821649922793185              -0.1002248970483955              -2.3746943546744697
H              4.930037218346116              1.9979611760005778              0.8812026914612402
H              4.863938353799129              2.625034713837203              0.5831720815030608
H              4.239574780180041              4.41314839485349              2.793214862250676
H              4.151991826301917              4.520342060117272              3.500315687315184
H              2.7844864855602522              1.3912826767425257              3.192398744193936
H              3.108839170147572              2.1920605025044324              3.1110074714858422
H              2.9202310856453173              4.62957033108222              0.1045417706842048
H              2.4076752431242645              4.407879478148011              0.5127176558298863
H              2.161729137027947              2.032498258669944              0.1788396701148958
H              2.278556638599231              1.8253012348228819              0.8361438214956363
H              -0.7295933300027313              -0.03762389326706907              -1.8344911120987188
H              -0.31623622554526853              0.16189722348956442              -2.351278007930317
H              4.783632181477224              1.9934883463887267              0.7724957566190723
H              4.534034662661972              2.4941502554687194              0.2309183119348179
H              4.171421171123285              4.437652635642824              2.8224638799146415
H              4.021181312511031              4.114313616450158              3.4586245613391657
H              2.577381771027374              1.4047617229396703              3.4963870596438342
H              3.1533704131577194              1.7231388260467921              3.365314865507232
H              2.70729536262412              4.402431476574121              -0.01754581729292613
H              2.3480803820435376              4.160838515769617              0.6072282657037055
