72

H              2.2405345629891937              1.539155748023161              0.6381891370753258
H              1.807189674704191              2.0651499431273295              0.9328471486046753
H              0.2777900525455338              -0.4110019278372021              -1.678017487124994
H              0.111363457052446              0.15082069973505935              -2.082013496199362
H              5.222132985381151              2.3832623155364434              1.4888716813625456
H              4.8426681461643035              1.9667026780241486              0.9745029578308565
H              4.089487041256957              4.413023399366617              3.2660948457248935
H              3.9973644751642334              3.969332147101774              2.742537481721017
H              3.258737721541797              1.2614057444870905              3.3768444194011193
H              3.2325508038409856              1.9427758866674811              3.23713793737907
H              3.0139056151749237              4.108535330605546              0.5322680980624042
H              2.739105880462849              4.7268091521126605              0.42214990424665083
H              2.0789214228801005              1.7274585876203412              0.6882120539380432
H              1.453184149361827              1.7953905380173067              0.9376681094503538
H              0.450742343899043              -0.3576107954350527              -1.7686348560953886
H              0.16685232538560257              0.3175304131337237              -2.0993891417206965
H              5.62914168270472              2.4445167854117544              1.3535404680461025
H              4.947508335454913              2.073833125609431              1.1579280781948207
H              4.157172646372748              4.8508728333484274              3.0375306996315183
H              4.102320515843523              4.270849375167457              2.6256048676301402
H              3.389912327822366              1.2920934014598402              3.0914853435091074
H              3.4177782395356298              1.9560436165137824              3.1781678182594186
H              3.0312207131032776              4.229339818737539              0.5772595074116169
H              2.9154677550754875              4.9770893522043504              0.6627583410184407
H              2.2784204750064374              1.7350380390575155              0.5050588439198677
H              1.4857162129845696              1.8064526373302978              0.6948811559698554
H              0.38798705565210506              -0.5165053334293157              -2.1839723561052318
H              0.34334292598416166              0.31643786229065013              -2.009760498481594
H              5.544788063363392              2.51237791319168              1.1499588685257907
H              4.85611148319493              2.250234832515457              0.8994011455058191
H              3.974856818404967              5.005568608628438              2.932580797720532
H              4.017522609878063              4.2538867743704465              2.905142226253887
H              3.4747134757710745              1.3535160254336396              3.0149691624839763
H              3.3397278092767353              2.112771311571161              3.177672318993568
H              3.190474783740424              4.111698171877839              0.4093411571635871
H              2.9366795014198046              4.756486042693063              0.6336935454544534
H              2.3122530132614036              1.372723757316131              0.8586578029231733
H              1.6817938819161597              1.6396663381446597              0.5915004391353942
H              0.36194262811051686              -0.6011181794955548              -2.150114418691716
H              0.5333517849632442              0.05946610156719381              -2.304745261319722
H              5.502951070816418              2.4455837938628138              1.6942404061118117
H              5.09703352794194              2.4046395136880014              1.070820198155669
H              4.302951413000794              4.880309061048207              2.9644938726395846
H              4.017001370319549              4.162008960761837              2.996588635222391
H              3.0237164422165423              1.427602717026045              3.1923550472820565
H              3.475214193851748              1.9514125536967963              3.035290745471189
H              3.31688276138571              4.128363630738191              0.5630793752961925
H              2.7835681493673397              4.647139341579327              0.5976105498814939
H              2.383032156961799              1.4785651207777242              0.6762000973489982
H              1.9287864796424552              1.67484872123714              1.2688231617289103
H              0.3598845865888861              -0.5001768258755808              -1.6969057523474251
H              0.41238583785262534              0.09785413670637944              -2.22745819318778
H              5.743842369158738              2.544737227340704              1.2489467219556254
H              5.0274009659486785              2.3379818257156164              0.9231953204982545
H              4.321623294820302              4.542548662377929              3.102161155135729
H              4.313352519795531              3.980757934549528              2.635850669982978
H              3.261680133930474              1.9516627682161807              3.44358475814983
H              3.2112237491602658              1.92231430842085              2.731788265727393
H              3.2493399795583913              4.107437687199817              0.41331638457348746
H              2.7860226420123224              4.473594512518357              0.8524567735777431
H              2.158264661797375              1.560823256560095              0.9618598860816201
H              1.7201048142034607              2.1205742429162964              0.8601059400692671
H              -0.14237100120442336              -0.33740932232957466              -1.5912432998454336
H              0.2224155924283338              0.06542948193033019              -2.1632721038536253
H              5.418813343833277              2.370159072828425              1.2604280090846212
H              5.279445415042684              2.1668150662515946              0.57599200904176
H              4.108822952913376              4.489536300868664              3.157235294507789
H              4.174405818068974              3.8348383202792267              2.8411057210666977
H              3.324190307015849              1.4408419129736088              3.2704284638893757
H              3.413179492551928              2.140953523750001              3.1246904978802905
H              2.974300194027976              4.122631417160419              0.3463041628125805
H              2.719424078860507              4.591252623733308              0.8158077089204478
