72

H              2.0419993893092605              2.112517862498176              0.29722147323876014
H              1.75113727196952              2.0811447914136303              0.9133164931747024
H              -0.607798181541509              0.06297740012111265              -1.6107445818475468
H              -0.26168277392367945              0.28770973725394844              -2.177737280495746
H              4.75635851833691              2.102525184689792              0.8717704247581697
H              4.501313527331395              2.308959328474499              0.23135691299762243
H              4.157205955344726              4.6778819916572285              2.920640220538245
H              4.213584171188663              3.985766301136642              3.1573138845207844
H              2.727816414080454              1.3805487235913316              3.574841923838982
H              3.4511700927309454              1.5581244916487678              3.5804957261545414
H              2.5281001615438567              4.565100964927385              0.058688385534878894
H              2.6619247474406587              4.65377656340715              0.7555542026035745
H              2.2589115702960125              1.9764873194439898              0.3130843361131509
H              1.6284420089095248              1.9932158198938208              0.6550064334781226
H              -0.7014131264272668              -0.17195926102459294              -2.022219846488818
H              -0.2113542973398755              0.43411947636912007              -2.2338443401598473
H              4.688579450697416              2.1126290946298556              1.0587081791707302
H              4.152191112204887              2.4868512450813074              0.6515852865239752
H              3.866531481230587              4.654286005408698              2.802419048336448
H              3.9010677406271568              4.271071914399357              3.4016954356404177
H              2.8596151455607233              1.4540252327938197              3.172361109172324
H              3.315400330960913              1.9794852250579462              3.4046271163144852
H              2.9414347945280706              4.325856072391412              -0.09855076635160646
H              2.558976820547672              4.660536497803568              0.45338950304657727
H              2.2061337642210685              2.111567736654085              0.21552324339110934
H              1.783833544309228              1.621145210943398              0.5343848199914961
H              -0.505207313041156              -0.24922385241373865              -2.352467531148808
H              0.05777978642401458              0.3854896829438274              -2.497911329864137
H              4.899636831100979              2.377173004811213              1.1682955216117006
H              4.397862693320792              2.461704866745401              0.6421605608295409
H              3.992732322432618              4.875785338295985              2.6458219214415926
H              3.9046220239203926              4.360964773060704              3.2663503612826608
H              2.9399801203178333              1.225236793044877              3.114182664220802
H              3.1399498830103454              1.9643856281468313              3.264244105876292
H              3.1558408512096996              4.442822020860066              0.09005560743437514
H              2.520918960876661              4.5433207949616055              0.5176601407215841
H              2.3027510369598008              1.9159488735151018              0.34764994200669125
H              1.9397117974370872              1.3438531575891162              0.7858826202981943
H              -0.30928304061771145              -0.0986378309101691              -2.0230095679664393
H              0.1645210527007659              0.2609670489782776              -2.331111735121285
H              4.674779223210672              2.132396072364067              0.7873353758757712
H              4.525140354899056              2.7402712390033517              0.4454507103212459
H              4.24730153746562              4.594448132006198              2.714366783555389
H              4.059002293791892              4.448648564431222              3.45200026293524
H              2.906072937521356              1.5168824179454747              3.335593695253212
H              3.2144175348659587              2.0616003874983444              3.0095319561100897
H              2.77726411142639              4.759112008827831              0.07777930099618853
H              2.687556009461045              4.239058317536305              0.5877372634882477
H              2.3153907051573905              1.7023895874074453              0.42024890956873906
H              1.9191374063534161              1.877530305411164              0.9755725089521382
H              -0.6790365867249162              -0.08150437028588677              -1.861778584383935
H              -0.04417270829088444              -0.09720767419415105              -2.407314515392244
H              4.851105094010901              2.003765468499221              0.915271126313223
H              4.911493741957589              2.644990738296791              0.5233383013802461
H              4.274167270062216              4.313163659504591              2.8228349659103036
H              4.143684508307203              4.472600869539773              3.576833942916219
H              2.900737508030024              1.4010102982395576              3.1728343684942604
H              3.082418072521907              2.1780497793202156              3.0966146555091445
H              2.9633183698029693              4.685032000336615              0.03264435513261377
H              2.436205979578042              4.357834066357323              0.5024869763796139
H              2.2184411744490933              1.9279933644453005              0.20333648193935075
H              2.281193472447162              1.8260281247414742              0.9737483094381165
H              -0.6256273852851356              -0.04694552746655783              -1.7310507746098978
H              -0.22092982809320322              0.16829671169901333              -2.3339021546169527
H              4.766094725337924              2.0164785411537736              0.8409316908506024
H              4.576551344580719              2.4915111443117888              0.3469195957277379
H              4.3029027035262155              4.381663447670888              2.886082258593133
H              3.969727085894229              4.070474227067415              3.466719272129222
H              2.5869123914870857              1.3169316514990943              3.5083073309615505
H              3.167242586768304              1.868342618484629              3.3406504921421547
H              2.7274381553782296              4.392797845947233              4.234287640234682e-05
H              2.4523541569087395              4.100318854542963              0.5937174370627765
