72

H              2.3991790102539774              1.976118975793002              0.3035689385943169
H              2.00348717758129              1.9378640768569064              0.9200280039369254
H              -0.5064065106759962              -0.3765051642376166              -2.0530449248663474
H              -0.14434818211667283              0.12151556725040488              -2.1723386497568673
H              5.089542715995894              2.323913900931457              1.1321224000569696
H              4.602527726789927              2.3441057864908523              0.6663840099098086
H              3.991962033063261              4.668499754503719              2.9130520703690332
H              4.04274100977732              4.184118751870452              3.433836307061504
H              2.7044058185616464              1.94142202036863              3.3235821061565995
H              3.3049653681360485              2.082764650244223              2.9326951191149067
H              3.25328560195818              4.311174410908382              0.036511538994489716
H              2.6479833926097336              4.377547237645194              0.3356731824797612
H              2.4451096435175175              1.8749139764460754              0.2895818629713179
H              1.7939661929713755              1.8540783901981406              0.6058256060027648
H              -0.5384743487732914              -0.33229562307243155              -2.014557528926636
H              -0.146613887413566              0.19991776171110315              -2.448073684518093
H              4.922871834374135              2.2056772932643196              1.1858895290132725
H              4.73744790239789              2.3848889745063566              0.4320266226305873
H              4.038525736437088              4.84430054689258              2.894281464490519
H              4.148101040661863              4.2417043656725              3.2206875952141845
H              2.7277135428117227              1.726892356549558              3.456629923580686
H              3.3650454938294985              1.718382014453827              3.206092320932784
H              2.835460323768636              4.528531168344353              0.07056892132350036
H              2.4631358457160792              4.570113075697542              0.7131256918487988
H              2.342091181726453              1.8991061556013078              0.2152253730774226
H              1.963510068213804              1.8613137185222655              0.9093957607009051
H              -0.3597348038051859              -0.16430924575339945              -1.7960859776355067
H              -0.0970723471586202              0.24317380235722355              -2.440461433844217
H              4.983598762533862              2.1347673911568887              0.8940611521623458
H              4.458502993450323              2.5440158500626016              0.6624591347401669
H              4.23340673393924              4.849468143199673              2.9068760188723943
H              4.072990839607404              4.145995939015359              3.0636744785648613
H              2.959708668607544              1.4372731537456789              3.5782344512999718
H              3.3010182168320603              1.9694389220517223              2.993982337462945
H              2.7797202525537554              4.515569746710723              0.0682122058870211
H              2.468885672180693              4.77881743681848              0.6689780122358739
H              2.283826627290813              1.9238632386666583              0.27481468825093136
H              1.8457317020034878              1.8260689892321287              0.9166382505394939
H              -0.3843968984875196              0.02832566246609803              -2.0130498684207114
H              0.002564909270388419              0.3116122915729306              -2.5059431277817885
H              5.106621503235451              2.2413542391800076              1.048004888020456
H              4.52493317259201              2.552964207344133              0.6757919915100242
H              4.282045847591436              4.647034140449003              2.836483411640468
H              3.918532050876082              4.11185326056359              3.198870618774651
H              3.198046148005124              1.2974534458902058              3.0474158283765846
H              3.3157385056983415              1.9079383148566034              3.2705404160566625
H              3.0159803318765483              4.321508694284929              0.13658231644212818
H              2.4686809060969654              4.633860807182459              0.54354527665803
H              2.2949851502181806              1.981852772266928              0.3614487883767987
H              1.916887378023543              1.8019018993704166              1.003054568797785
H              -0.017453121188909626              -0.037937407432392864              -1.803278977071484
H              0.2877224995169145              0.5216960358783921              -2.21573585258185
H              4.865452927376091              2.3096118977980167              0.9554198360883659
H              4.5087915987213245              2.517566528493189              0.3096482616122742
H              4.422519576970383              4.44223685966385              2.9794500921289795
H              3.9500252087940475              3.90343587825507              3.1759552213192963
H              3.2847754418025006              1.2368711758246438              3.423078385842837
H              3.1738062989228517              1.9420364799606649              3.223813316046569
H              2.886840712966234              4.458289052327407              0.05137922883434218
H              2.809312843134601              4.1960692840939              0.7558744119639036
H              2.2841604793221726              1.686829100914844              0.7951408499916732
H              1.5944509425812772              2.0090705970366867              0.9599939532684444
H              -0.2804171840593113              -0.10053781493573677              -1.6264397775527741
H              0.24525832987116342              0.252453729531844              -2.09173626937973
H              4.899604462101256              2.1453760304893428              1.1583697430155642
H              4.800005257186084              2.5415058719447865              0.561025564181006
H              4.466757019761158              4.417341413914395              2.9833880677481837
H              4.004773683596896              4.128593429927398              3.4728235794942677
H              3.213008931694871              1.5386314774114491              3.1721009621071037
H              3.2961559890088035              2.2676430008312978              3.1989418765076847
H              2.9660390895269257              4.605271088182707              -0.014270860314558084
H              2.92468748186408              4.425304762696679              0.6638891744794373
