72

H              2.1681817221507087              1.3159111991257584              0.7658751462471908
H              1.6067728222298236              1.8016295056196234              0.9022999446296641
H              0.6096028466731795              -1.1971588790612202              -1.964257226504759
H              -0.14688992425920008              -1.285214325419945              -1.8123595102883152
H              5.10496803362722              2.0221538894396196              0.9028792756949173
H              5.158251925561055              2.484013444769299              1.4292188577514509
H              3.595686786617009              4.752729813777919              2.609548678588248
H              4.236158694959742              4.605126510581694              3.012839706729903
H              2.5358852735595216              2.583328759727281              3.612774343916405
H              2.6675002773289487              1.8820074774779791              4.026391953815384
H              2.8948827165381              4.469215067350107              0.5392003827688505
H              3.0073481368871224              3.7885175236827715              0.2104235532396038
H              2.2320496218300483              1.3788234788417202              1.1664893810068573
H              1.7814253645162292              1.611295852659451              0.6956695188695583
H              0.3737792152010191              -1.2361166054220467              -1.7870890986949863
H              -0.30180585552400074              -1.3364631265134985              -1.850097921831054
H              4.985941833247161              2.316630706154446              0.8425213691045692
H              5.0882357573072134              2.75907901469401              1.3852665648042286
H              4.142119623118624              4.429542491329507              2.4632840939815384
H              4.163457717548031              4.7858926752555915              3.095972243547126
H              2.386369049251005              2.6029924133599134              3.6986572785539535
H              2.822674798742244              2.379251820212887              4.215463957714048
H              2.674923204263741              4.418857090508416              0.4580718859414932
H              3.0570044402597425              3.780236819562399              0.3604512538350752
H              2.251888484763924              1.2735590010114775              1.0580186458585594
H              1.5133430520107185              1.1522915423719682              1.0982134238417527
H              0.12477752541325764              -1.2135354358832344              -2.0484737204842265
H              -0.5517827281690324              -0.9071089337608524              -1.7289743539363636
H              4.698249883040754              2.4527895421629893              0.53984176616905
H              5.112696777909868              2.3227039698547722              1.1713995857170005
H              3.821246836209457              4.569678347094047              2.4728799041093525
H              4.062885862777213              4.814941442993225              3.153556187710285
H              2.417192364949701              2.1742975686278427              3.6968381559505836
H              3.0236558069018495              2.138543948177923              3.9894071507950493
H              2.5425100569067696              4.39080491454196              0.395728281277626
H              2.9573027300283647              3.7978195471540257              0.48752268265454035
H              2.2457599435203814              1.5732763783683508              1.1008905844780439
H              1.5271407577509077              1.420288565697474              1.146812285377791
H              0.357130288632221              -1.1803704536906945              -2.020099850386625
H              -0.189591810440425              -0.7825327993303618              -1.5622135356142428
H              4.697316286423751              1.9606071578378266              0.6226184832462344
H              5.188195656536863              2.320514093415008              1.1342528740962388
H              3.7111632287831564              4.477002343012789              2.5695671757213603
H              4.070142640914826              4.701823404424708              3.164546158804252
H              2.399463601699113              2.290797379621899              3.71436061891618
H              3.0588307245627884              2.1220630248598185              3.7605591922424915
H              2.756725433213478              4.587856008272234              0.33656359084381465
H              2.927733483646766              3.8268782356633024              0.5709261591789453
H              2.122053502114135              1.7354287152425614              1.1777716986173767
H              1.4724360766464584              1.535291979956188              0.9762624895037527
H              0.33943967593067276              -0.9785497168722298              -1.8409843858929937
H              -0.1838417451724063              -0.6639935213589276              -1.5432859058064432
H              4.714059249039084              1.972511217403053              0.8037194047281674
H              4.923157484099684              2.2415505482810314              1.4415612920202094
H              3.733061966118679              4.662466194141577              2.6139111925134544
H              4.2572025294682065              4.853861857002724              3.0746898031917156
H              2.807951036547004              2.66000454057896              3.4686411488150224
H              3.1252913618292766              2.0902232907800395              3.7335492467591345
H              2.6647427974183726              4.4819746127740085              0.34083502289892975
H              3.223302111382063              4.047673000275587              0.4344963050888942
H              2.0688213839509895              1.5301194427528708              1.3303611916670233
H              1.8200891629989628              1.7607960605559678              0.624054725599043
H              0.3412274655617719              -1.0575239510532544              -2.016331940137714
H              -0.17717250497611864              -0.9649176036157612              -1.6367164470156328
H              4.735636468496526              2.0701596800295134              0.7058157789812788
H              4.81542789142308              2.391066855612167              1.3359015497735829
H              3.6138299804859697              4.801242977958373              2.511990073391397
H              4.192342587756673              4.8375481966380365              3.063009184031369
H              3.0422769123333637              2.4618640674453003              3.642289152209825
H              2.8499827091016745              1.852548920964258              3.568390837086893
H              2.870490819750639              4.643148517837906              0.31469587487083617
H              3.1207701400428185              3.9923243233710295              0.3381503084256874
