72

H              2.3439395596611963              1.3890899161491679              1.0946075773903714
H              1.9838801098191203              1.969799690107049              0.6842968814925589
H              1.070017849910916              -1.0361685764624928              -1.7455618148907277
H              0.4516918635356699              -0.7072067973701283              -1.6428407710234236
H              4.839444434791957              2.621060931137815              0.8600759202778567
H              5.013349685905708              1.990405049521766              1.277622652179113
H              3.8756188498722777              4.662804859976658              3.133845422019853
H              4.550086925335679              4.814857047366048              2.9352210113547597
H              3.071317336147013              1.8843037414158337              3.3246591161317496
H              2.730496645542905              2.1605198406623303              3.940748706753039
H              3.1459655832804936              4.107389912389846              0.873293654542486
H              2.895924732201694              4.172544773546511              0.1865294308118568
H              2.6307580332524867              1.4402599286559634              0.767049602614629
H              1.979731242201601              1.675537291531386              0.7750545983237559
H              0.7678929931641756              -1.1088236936539797              -1.8599732523248858
H              0.06693564478314694              -0.7285690560753479              -1.824110248281128
H              4.650669718406613              2.5757645215750875              0.9798798484337321
H              4.9627813042315685              2.0424926740582845              1.4154129914048599
H              3.683909380626721              4.581833661228916              3.0106970744411634
H              4.416300382351148              4.691401240757048              3.067985897632621
H              3.0709599431100956              2.0416641937497833              3.303194866989205
H              2.842397097411601              2.247296086171509              3.9864867405221553
H              2.8421655942769437              3.7498559622121896              0.7151283562154173
H              2.765157684961247              4.198226300446872              0.04953978871815159
H              2.8940681802088633              1.4630454438948048              1.0479872692279955
H              2.1838043945743446              1.5909216199438638              0.7224193811488052
H              0.7449846431326694              -1.0388003243243826              -2.1027762025055314
H              0.28605730656670986              -0.5280429206063835              -1.8746176189035615
H              4.56092390543426              2.518297802602955              0.9065821544732645
H              4.817828529720599              2.140819644710643              1.4087570820211621
H              3.7598097806460173              4.334924788598721              2.75436855649859
H              4.331047729192078              4.80018942234659              3.028359143805569
H              2.977037946935682              1.7833635987957686              3.1555665327936255
H              3.0976053308828835              1.9897722635108697              3.869235732879178
H              2.5540231862395366              3.8340144875916264              0.7281365296641434
H              2.7227475854101115              4.154629446994083              0.07422335450203396
H              2.4876554305448004              1.7500410705453346              1.1519077399347981
H              1.8163263956014803              1.4662941256810023              0.8219819665326714
H              0.8269966718588793              -0.9033722196590847              -1.8016150316375936
H              0.699949561615905              -0.1349559363994262              -1.6603850166126648
H              4.728421119915617              2.4466178716242517              1.0447679003317805
H              4.7306363776542              1.6880966655959018              0.9036488132515732
H              3.762425341351576              4.421134638584704              3.180399500029944
H              4.389826767413132              4.613169537921033              2.8003004708314574
H              3.2631328475284196              1.7418294608443594              3.161875179831372
H              3.143758450063716              2.1330550364665486              3.7619645233571877
H              2.361913268058752              4.002022800849122              0.6969037400604062
H              2.774476864840465              4.34969704991              0.18841822767636104
H              2.3874307599128284              1.8200264279724476              1.0667945692518082
H              1.6773711488847507              1.8352228674422753              0.7798698625075559
H              0.8386812869001344              -0.9745635440008578              -1.7846038952271905
H              0.6407426260251331              -0.22278166696780724              -1.581256013919291
H              4.539046502461625              2.2975921152489702              0.9045079000714676
H              4.684517611776646              1.8053303341060114              1.4447400832398387
H              3.7624141826068014              4.6087291344230055              3.1007165388387103
H              4.485452415577018              4.617558138585957              2.9785026842397824
H              3.6598177713536564              1.851337829385991              3.51151511940635
H              2.942310301590999              1.8742448834782897              3.5941894483165884
H              2.7681160267916436              4.0090051804796865              0.45879418167920827
H              3.0255184619699778              4.500964820675518              -0.0064919501613699875
H              2.321057451846974              1.4061455458461682              1.0904643361652835
H              1.7121378210621314              1.604992923482424              0.6618623480807169
H              0.924312685657416              -1.0009936448153993              -1.9252201273984093
H              0.564869460737386              -0.30571380047561436              -1.6891993085994874
H              4.771879319949029              2.452500897066665              1.0411821649654085
H              4.702839131202876              1.8754824386181006              1.67241284478848
H              3.80700445457706              4.948550348038696              3.071081049874454
H              4.509676941585905              4.650019258420652              3.124589458062267
H              3.3661782247454815              1.6198225950905678              3.3016542119484233
H              2.864165679893199              1.8216613344767092              3.727099607386198
H              3.1473500448774723              3.8401620742683256              0.4244041995353574
H              2.947940696179582              4.4786079306949915              0.11762812754623679
