72

H              2.602601705482442              1.499660077634394              0.5735104915316332
H              1.8699606118860426              1.7220792172928765              0.6900485346982035
H              -0.11927794292679601              -0.41711637556763154              -2.099778465117023
H              0.1882203087472356              0.12921158309127112              -2.3081507851940266
H              4.906238892741345              2.2555283382673266              1.4194506905295556
H              4.667977617323004              2.585705079414442              0.8331668999662718
H              4.290041337970103              4.57271806426189              2.9621639060747964
H              3.8748784901754454              4.234867516326042              3.437045003002951
H              2.9629550168279084              1.7023911470039255              3.2920104420367307
H              3.18514034921874              2.2671982623903384              2.828813434851452
H              3.210466114615018              4.505357978053982              0.058165795320758676
H              2.669550309293061              4.290909293604895              0.4737339052521642
H              2.3279133126110754              1.8291824364596947              0.44141045103225685
H              2.070578724464943              1.7796521103459142              1.1216385809108411
H              -0.24375248567248153              -0.27313510889647336              -1.8207839501786571
H              0.05226271534677327              0.05573083108159918              -2.382603942392655
H              5.468181843321479              2.2951258000645636              1.1020398218823688
H              4.956582389959976              2.468304883581376              0.5251681128973117
H              4.411700146590758              4.813200406827197              2.9236523402394092
H              4.2097291576978035              4.135128519604228              3.030177018545485
H              2.9328052780910006              1.803354475789744              3.4375478325325988
H              3.2222583526879873              1.9432244102603842              2.82946901562215
H              3.0950011004019866              4.5048680484421775              0.22424626373036818
H              2.5637536243565613              4.554026020535189              0.7150224754786284
H              2.4193173907811025              1.8568422157218227              0.36861450994904793
H              1.904423609592379              2.024115783435049              0.9390225786249693
H              -0.5244778797768047              -0.11719736265179188              -1.7369810157071413
H              -0.13096674661606034              0.23340292304477617              -2.313299363108921
H              5.075665375413982              2.0950588382484168              0.8470884324577542
H              4.735824928676549              2.4895573769548736              0.31033802993841136
H              4.117230969332702              4.573389807180002              2.9948712080717805
H              4.098718276184894              3.940022962000472              3.3203917984895424
H              2.864886610635663              1.771053884593503              3.453832742321632
H              3.5750474487946353              1.9196193206973495              3.0620569490878506
H              2.7522887295005205              4.362238943016853              0.006415438150965383
H              2.4894389110337016              4.486566852565622              0.6636245550356543
H              2.294404357951665              1.8432350513363995              0.44788905487587893
H              1.8362703800668376              2.2225117482129564              0.8223893561778648
H              -0.2003382525176023              -0.11514819966657411              -1.7323714776298509
H              -0.04762604989196358              0.2769737726841557              -2.3827543318733087
H              4.9446767074398785              2.2211435574616907              1.3730792833575047
H              4.528818240376637              2.3460477303769918              0.6539132697536011
H              4.282903131642029              4.507723659664448              3.0806647198347843
H              3.9625565075765805              3.8582716969156463              3.0115806697931307
H              3.2893350959174756              1.1645991189309857              3.3643957553767168
H              3.172543573901118              1.871655537785013              3.397739527119722
H              2.8529390921560247              4.266161169415119              0.13359383393824575
H              2.596207343790308              4.769132266259037              0.6651226331364528
H              2.1291642289397235              2.00600933984651              0.41799786413849715
H              1.7979947522101276              1.7306360368623426              1.041952026976511
H              0.03515988235620599              -0.03492506656567241              -1.7901959606291946
H              0.14821722069061877              0.5613772460671719              -2.1408585261148487
H              5.127824507471071              2.3502668096393746              1.0160516333449419
H              4.411537407335511              2.4207324837502213              0.7486620371845053
H              4.271209324866044              4.650366431150437              3.0233014568669523
H              4.0024210070623765              4.02795299530914              2.9045819327740916
H              3.277077377105333              1.3657664136221457              3.2504852192138123
H              3.377763639727504              2.0722809779818236              3.199826622036986
H              2.9954736115455542              4.277789698854207              0.10280019367838983
H              2.8259547851516285              4.566029745142404              0.7873593285441864
H              2.261355622612546              2.0411275389404993              0.5218168526721388
H              1.5242059011190365              1.9365754315640344              0.7231048198038422
H              -0.23529725895254022              -0.25335316749018955              -2.098612760457557
H              0.23128496020561884              0.38791881200314254              -2.149156335715167
H              5.140567499685571              2.4412400992533256              1.1319276755666339
H              4.736362520584656              2.3914840177905803              0.5065994208255116
H              4.130054636698479              4.765361376509376              2.8415477847124584
H              4.0343118310200445              4.176684184988845              3.3064795214668985
H              3.2576967668362524              1.5458687047410495              3.140927679813251
H              3.452217936181248              2.2048049543326633              3.0641852073984768
H              3.203252033376578              4.4125597337741995              0.07044774711497281
H              2.818565058681019              4.5906116671516015              0.6769816848642924
