72

H              2.110447204459048              1.4108745274784313              1.1224427366663234
H              1.5883245295087098              1.7040571114236494              0.8088585687703063
H              0.38955903348960835              -0.5736401582936299              -1.6452852990120945
H              0.21612158088333502              0.014520967416728712              -1.8822109940630949
H              5.641796809820785              2.4855754504134184              1.2837631537915852
H              5.280840290350496              2.0048192075132554              0.9172688363425162
H              4.061819732659843              4.890835051451163              3.146770377525369
H              4.302530543792873              4.2567742140272955              2.8113448753250925
H              3.210674907319561              1.4902113447080783              3.1208325971666095
H              3.268826007576502              2.210921134239091              3.088876678374694
H              3.176520051107557              4.242483047015136              0.3396250338275938
H              2.965279178334151              4.678845203181546              0.8653012737522118
H              2.3459476855233237              1.4756130250856947              0.6682633043691447
H              1.8679705114837994              2.0068826412774974              0.7712904967963439
H              0.26492972340317206              -0.8509559345581492              -1.987409255817168
H              0.018360178610863698              -0.0832793545096696              -2.123198460924606
H              5.479221520410159              2.563229239723027              1.2955577272825076
H              5.221689581429962              1.8718872196016603              1.0757427517937206
H              3.710247955478745              4.805330697763617              3.0779077283230585
H              4.252815393893999              4.369086966115552              2.829368813433502
H              3.0739804191179916              1.4192897239651763              3.1433952219109846
H              3.2358366092156947              2.1615422609611867              3.171890811300902
H              3.1176776380846936              4.254124899338151              0.7273054136878102
H              2.692025704951846              4.639729544743897              0.22799723487530674
H              2.4783731369022224              1.4822190457444822              0.6147328764174866
H              1.7576056101486397              1.5233201014421962              0.828985589147796
H              0.4790072438495202              -0.6054797006895338              -2.0713714796681066
H              0.24360405549175945              0.06608594743035374              -2.3331741399162422
H              5.574629386254022              2.500540603912348              1.490952086269797
H              5.092274203979442              2.077764798235464              1.230898521975242
H              3.964279492490626              4.820944970895454              3.1135144251969264
H              4.159619005515788              4.266613304282905              2.5678322414399806
H              3.047691576486707              1.2490180054754658              3.153636522129623
H              3.3875246568492887              1.940126302674743              3.190434660547719
H              2.885529335107763              4.112938820323258              0.8001160198029695
H              2.5866843342700054              4.667028593670453              0.3477785401799019
H              2.3029004003498934              1.7687538635659739              0.7758903419762987
H              1.501815599336809              1.8861306161219364              0.8011397339719506
H              0.5990683464121284              -0.3750547972110928              -1.8200048072505826
H              0.605216125852224              0.20940173258482617              -2.09935291308204
H              5.638663987371509              2.507304406028237              1.1274417427217482
H              5.094008672526633              2.2185685228749783              0.7927212046898491
H              4.102613185184657              4.544681414726345              3.098799221343001
H              4.23487884035933              4.198185386594563              2.388118233995236
H              3.805770435272625              1.3281509074166906              3.3626505686618535
H              3.146349685417199              1.721454531509258              3.265593252707848
H              2.810671387063994              4.0318470695159165              0.6134146687011005
H              2.8319632725506607              4.767128338148355              0.8201872609031265
H              2.024433114886077              1.4512084119043516              0.8344293491808239
H              1.4382476527583028              1.8791737473909909              0.7012186217836192
H              0.4039131568402632              -0.4286923293658064              -1.7632989572767548
H              0.7190235070068478              0.19725927223201314              -2.038284623013815
H              5.3678093592966185              2.369479898727123              1.5457222944828048
H              4.910872077924232              2.2166877913766125              0.9850235311362754
H              4.281864971812584              4.623569973438555              3.1418018502538247
H              3.9324699200799698              3.992770630626736              2.9286581209913125
H              3.483747081173748              1.0867185053714112              3.4845541988665873
H              3.487298291285986              1.8663656086892515              3.1802352825498037
H              3.1276647321999587              3.9088820044300823              0.43144576513080474
H              2.904978034168962              4.649257629121644              0.6013651257104137
H              2.1452919452616643              1.3155722456881325              0.8515345173985228
H              1.665342370105509              1.9212295077976964              1.0109976235214424
H              0.6374515031493362              -0.6291944019270929              -1.721167250668924
H              0.5167341889854195              0.10002554743777639              -1.9842492702022743
H              5.481216967592868              2.616306610567372              1.4570451983520494
H              5.041584378243365              2.015994214602977              1.4328202164940047
H              4.283253417241106              4.747442054848639              3.141076875612909
H              4.296831860668926              4.108272613130632              2.7269355061657294
H              3.1403652336298236              1.1856367345431285              3.5282997635937603
H              3.305075642890833              1.828304003983223              2.9727756400146363
H              3.455774523035967              4.033533031268708              0.5295971251697703
H              3.062089248220301              4.628524420107852              0.6457632977930727
