72

H              2.429847470131371              1.430654693632631              1.087758534768201
H              1.7851268288514157              1.7431219420584407              0.9885478024910914
H              0.5275296860962685              -0.7684869938218285              -1.6667645734335275
H              0.2927400929787742              -0.12662708077108406              -1.776998097229562
H              4.762138782156118              2.455765994899521              1.0590477552647661
H              4.839777861221931              1.739071853846575              1.3963534238179818
H              3.8239934686320254              4.514251936036027              3.183340457064768
H              4.466017987293784              4.657763769634686              2.9601403276443197
H              3.560214841898501              1.66603725645302              3.0510235943655184
H              3.0653122209670425              1.834348161019233              3.5334102906534333
H              2.561346140336393              3.920821230342388              0.3790425454658898
H              2.862799685809612              4.555903615086697              0.2053386593676483
H              2.4028165963863293              1.564700893203866              1.0969553484147496
H              1.837373732204979              1.8078243487560104              0.7280747372504783
H              0.9513967283595478              -0.7684372079954344              -1.9557559301014213
H              0.46376044904268854              -0.15522288902666975              -1.6781132310111941
H              4.8514559514971225              2.42055632258611              0.9512962294347578
H              4.878087308389158              1.700918441793318              1.2872946386101958
H              3.7156736163269137              4.801828420491675              3.106039161515644
H              4.341146542382635              4.765742851180496              2.860018257342328
H              3.4060293459795346              1.4605188780599399              2.9871888483869684
H              3.018431992401937              1.7114075636235713              3.679305186932723
H              2.6843100763749406              4.140600856732733              0.6681878827520101
H              2.9220494159486354              4.560603709668493              0.0939414336776402
H              2.273447365896017              1.7212648086964446              0.9442405478065306
H              1.630203305425589              1.5615919861477598              0.6247303170539501
H              1.1312812140016328              -0.8139594933161176              -1.909524963613154
H              0.6767044856601929              -0.25348870707240834              -1.7290656929828936
H              5.228806566247488              2.425068577548753              1.2717673928521664
H              4.906174089473178              1.8156837404295985              1.401470759171597
H              3.8942504013949812              5.128381037135348              3.198723495905156
H              4.372169001863168              4.608427027438474              2.8347187936322733
H              3.3908216455437636              1.4827157611496113              3.281321834147505
H              3.005399651645212              2.0994755835704604              3.520332141837485
H              2.912750054577617              4.01673743874798              0.5573579068053397
H              2.8500776460349044              4.680725523678525              0.19017150351212997
H              2.5476576854406376              1.5625866769819658              0.8900801048012638
H              1.7999032612436052              1.7441370961133642              0.6008549872798548
H              0.9229026070766564              -0.954035770628184              -2.080239505477818
H              0.6166218524497654              -0.42052656067803806              -1.8837831676099246
H              5.062520341165562              2.6211209824313277              1.034770107967075
H              4.937245774249104              2.2303951775937434              1.6320281815403497
H              3.8841903444952526              4.910657419263425              2.8716467068703597
H              4.561203798166432              4.664049634353589              3.0233092279301057
H              3.4826306504939826              1.419621213680503              3.4832594081219037
H              2.931495094839585              2.007523897796868              3.3965677623065256
H              3.2203004489694793              3.808194154895301              0.39284307859853274
H              2.7873476287273977              4.415408925896518              0.34643648436952107
H              2.4711133195409145              1.3676952263823179              1.0294263350068513
H              1.9096162339936444              1.596868773926993              0.6418070337340585
H              0.7907796220148078              -1.0910806545453233              -1.9196982035147
H              0.6181971541802764              -0.25775244045793433              -1.9733973204201678
H              5.006447980039978              2.72465673406013              1.3180766891411002
H              4.959618452148185              1.9933526153612922              1.0561897596386058
H              3.8910372144320577              4.646722762474865              3.1747820037028798
H              4.519563348923748              4.431839382696951              2.9239502338935166
H              2.9353240239085245              1.169211473204927              3.4672796264802765
H              3.1619752566050114              1.9387097177062453              3.6688888164329962
H              3.0790541880495446              3.793043392777916              0.7666302227760758
H              2.564750219816105              4.183125010554859              0.32974574903295584
H              2.476129310746671              1.4026628275368596              1.0353239472889266
H              1.9656276422188106              1.9898010878908745              1.0452632848772956
H              0.8305461945730395              -1.0078773184371936              -1.5277549001752666
H              0.5134257334628802              -0.3094402083847819              -1.8054896104676739
H              4.857211435808463              2.594561606594124              1.130320457171821
H              5.0162307969625              1.8208565697281736              1.19376872352083
H              4.101568858424096              4.2169929855188535              3.274729814402162
H              4.517488244483369              4.537021061819368              2.7954146503602346
H              3.345174180048055              1.4877541622551387              3.5741217591546706
H              2.8300264900953627              2.1181588435633816              3.5465691651094593
H              2.7373472089093616              4.051147717176177              0.8651727264064759
H              2.778064066985628              4.2585455880943455              0.1607911270170426
