72

H              2.5949006303011966              1.4814189545782823              0.5954823972316886
H              1.8576692927263443              1.7050588031035225              0.6800672498590273
H              -0.10398228930045399              -0.4344214357481246              -2.078477840522094
H              0.22982760320960746              0.16460682848941444              -2.3284558266137383
H              4.907476847669276              2.252011252700335              1.4116945030459818
H              4.684936079959218              2.5993719411055496              0.8345386861329792
H              4.32721825464723              4.5769510268016145              2.956863229785991
H              3.8621214811933506              4.232382538980977              3.43044368972505
H              2.987866115846767              1.6720137197912275              3.301662874474154
H              3.186987515332291              2.2760714387139647              2.8263641414470255
H              3.202620347980275              4.525146761251127              0.05371029349515717
H              2.663415440354354              4.290644421251429              0.5138681696674162
H              2.3251986833150795              1.8234527347116953              0.43983177469450724
H              2.08110876168741              1.783988602794834              1.16680559867207
H              -0.22179439122980302              -0.2631113595695963              -1.8245820328760314
H              0.06309805338903508              0.04279492268713247              -2.3577223843285897
H              5.476485701550046              2.3017519035344196              1.0901183377009815
H              4.970857709944482              2.474645766700103              0.5504077360825056
H              4.435480248474096              4.798115777969741              2.9257625801970013
H              4.198639991354826              4.121169999009485              3.0316252524463465
H              2.9566831716706576              1.8010167203602798              3.4328831932445354
H              3.2143251990770376              1.9757168306118522              2.8023807673102903
H              3.112472380322748              4.4947218617855516              0.23138553526896066
H              2.5755374366153667              4.55065211875867              0.702917408453963
H              2.415670080937423              1.8543774212287847              0.39111929511686
H              1.9098929534774003              2.026187965795702              0.93321944370685
H              -0.5163900450143196              -0.10852741031212984              -1.747539968529188
H              -0.13428505116280343              0.22291343294208335              -2.298630613016298
H              5.082507558967654              2.1131599823384777              0.8583392101093799
H              4.755933325126436              2.4710968149046932              0.30755429801495093
H              4.112294133227159              4.553022351404604              2.9998057941315364
H              4.099832965416418              3.925392810583234              3.329557620388952
H              2.86824400156342              1.786379079227556              3.437786984781513
H              3.576660740112226              1.91059988381443              3.0698648696113415
H              2.764315552975119              4.346349554496256              0.0076604934473521995
H              2.4969832098030276              4.4639330996625555              0.6641049236210927
H              2.286849738955958              1.8430870923351              0.4698293369011999
H              1.8377026748314536              2.237540500038165              0.8159837411081886
H              -0.18753374581174057              -0.13310898185781847              -1.6983719705963916
H              -0.04332096289412964              0.2868131230002205              -2.371472268733545
H              4.9438439769173              2.2190049164923513              1.3730236605102581
H              4.53736601762986              2.3328127206183504              0.6393719030601873
H              4.270290162690946              4.489813001868259              3.0937300161577537
H              3.9840759828104377              3.8579640004911306              2.999915356978876
H              3.2896307787325387              1.1569129117994836              3.3934876661787388
H              3.169258725966805              1.8901425188770555              3.394791002257559
H              2.836993132878267              4.275174153838753              0.132578132335156
H              2.614743031906838              4.766433948327856              0.6817325608136416
H              2.128107372902356              1.994393706621025              0.42534903007893415
H              1.7773810654611333              1.7422705492005748              1.0333644383641514
H              0.0222898603877886              -0.03923449733083008              -1.7966625859938536
H              0.12793495720657647              0.5439464499575356              -2.138954845442761
H              5.116003763275877              2.3455058428937328              1.0279663607160416
H              4.440258100810662              2.4132179880213043              0.7878160909241382
H              4.251712906817782              4.668715317237396              3.0264653572822158
H              4.005727083566462              4.038403601195579              2.9004870029341205
H              3.270402164430988              1.3772461631313928              3.22725190410604
H              3.3953985128527133              2.0931716010449524              3.197663361445394
H              3.0013054628438933              4.271051600581252              0.11778120908702543
H              2.823065660001741              4.601361868335677              0.7622584835927603
H              2.2650504476677122              2.0598284087827854              0.49267567595931194
H              1.5408753327299594              1.9216519934992347              0.708378397852622
H              -0.21554923148372002              -0.2552063652432847              -2.133793263912449
H              0.2162965701817828              0.38305983402141675              -2.1635479015952823
H              5.158562385825425              2.462842556798347              1.1308811446769957
H              4.72125467559414              2.379945305727676              0.5198659140983553
H              4.106961858219618              4.78730498603299              2.8442903930013443
H              4.035166568495087              4.183673668908645              3.2729462626383774
H              3.252949072009477              1.5547122888802334              3.147367114839041
H              3.4514021118980893              2.17318103098548              3.0531041677945567
H              3.222293221335822              4.389097822032518              0.08291432207895263
H              2.799911249905013              4.600321383841162              0.6739687111874675
