72

H              2.145162564525262              1.961809491014029              0.3520102550874233
H              1.8670751311957439              1.994161101744627              1.0758648358055796
H              0.06639538090670644              -0.2986913176531288              -1.7965019297972227
H              0.18720211176384813              0.34982039043561103              -2.4011884375270047
H              5.46955184157289              2.4875928378775485              1.2513853878669015
H              4.746810849225597              2.21817459120208              0.9595147198105393
H              4.112598667674734              4.558820631968148              3.032046450522052
H              4.07037426420447              3.9199484618405163              2.6648523031092775
H              3.4783840062564044              1.271862657790622              3.210111147786994
H              3.412973947185908              2.0249398572951813              3.1244795272726944
H              3.0432824005742427              4.066312559752931              0.5931808534966254
H              2.696285146124083              4.7359024372205845              0.4685538459709976
H              2.205228085291772              1.6686709003675761              0.721960518305599
H              1.4831922933005381              1.8123145168286743              0.7253966007213799
H              0.39754016744455906              -0.21001361179799694              -1.798427203568123
H              0.4253170068034086              0.5115568229301654              -2.133305442061254
H              5.180409478975181              2.3541865890702387              1.34533617223618
H              4.76199967045337              2.3512896664195018              0.7128636501226476
H              4.400218760399781              4.51391219788675              2.9959603139751967
H              3.8545296230050696              3.9701638223390825              3.0076046336718036
H              3.447033846715787              1.1675087851382726              3.225770823453652
H              3.435656278565725              1.8842003549930502              3.2944133726613
H              3.0113105357985277              4.174403597112059              0.2605124582285118
H              2.9005033421336592              4.499323346457167              0.9260718127213877
H              2.1188608492128873              1.5835081496975583              0.8577061781580652
H              1.4837235791621222              2.006058319460782              0.957565986649088
H              0.39529358120631153              -0.3982364031130907              -1.7175346104493956
H              0.46887885695762316              0.25825717451819735              -1.947745763764352
H              5.474922743736135              2.410959568083285              1.439192516257451
H              4.936051927726574              2.3308527334708034              0.8933212489973099
H              4.423147446940512              4.680430141081591              3.0516699953079742
H              4.060667621870682              4.070790293959446              2.9342503934127477
H              3.4492271543778767              1.5088548300720563              3.199578815782095
H              3.282301099930579              2.1401875336759115              3.068433156126767
H              3.3242322732958702              4.314603688390497              0.2934586174062342
H              3.0590969386292937              4.721746044949069              0.8345852264729712
H              2.3622264653654392              1.4842772859356566              0.6312799215176678
H              1.7314487296121284              1.71358815811976              0.9496725517489218
H              -0.05751515844460257              -0.5913920127014888              -2.0294045177755846
H              0.1459829242357263              0.14413571791105434              -2.1440823732952445
H              5.490433689014526              2.5367327633594603              1.388663876710188
H              4.935535272636947              2.255683419772143              1.0510117196057447
H              3.9736372507248223              4.82503881471554              2.9559319494889342
H              4.202653737123176              4.184622993197373              3.203315985875898
H              2.8777299391482014              2.0883757555759406              2.989611832151638
H              3.571953219549052              2.072513068376225              2.824084256820345
H              3.421590302254531              4.202139521112033              0.2125710630820502
H              2.8574921423347286              4.5176194605546405              0.536921200577342
H              2.530975198995231              1.5843857905724912              0.6755783720845415
H              1.8583758191000455              1.962235746643082              0.7498431447807862
H              0.034433358476554814              -0.6203545078572853              -1.9862665403213493
H              0.04612576615165686              0.09486914557692902              -2.324133850978454
H              5.478185609113056              2.4993130168473345              1.2515583784231916
H              5.179293924544147              2.1624424327798955              0.6402555843664152
H              4.019951242255317              4.7710028090686105              3.0423433390009116
H              4.2564174831234105              4.118265419312125              2.8225171177600266
H              2.981232630735295              1.630238119647544              3.5127289606583956
H              3.2448139375492895              1.9642084562277151              2.827319065378276
H              3.095128119065777              4.232406458205389              0.4291071027502744
H              2.6294009097459576              4.662845946663548              0.737329543516413
H              2.385071305104593              1.5556994576344734              0.6836004544401957
H              1.794537745231612              1.8311354189620812              0.96679742009787
H              0.052311100918466004              -0.26504833698278873              -1.6884124046308764
H              0.14008439051318264              0.10693310808566492              -2.292697840059923
H              5.462979544385328              2.130118384701404              1.2597405081200093
H              4.9481559656232              2.442825909676695              0.7662931304177921
H              4.2452749865301165              4.486883075332104              3.2204136616105146
H              4.002786241146139              4.067423263131456              2.689475344418558
H              3.3548268871125946              1.5745457285093223              3.323677277293096
H              3.230329846519466              2.1872001248594666              3.0441046421316913
H              2.853739426214582              4.192763419768725              0.43196890153892675
H              2.5061806507045365              4.838373502338135              0.6403064716223354
