72

H              1.7807097325684371              1.2072805534444908              -0.4661276729820513
H              1.2797991892881215              1.3081212368672246              0.07124356032656488
H              -1.7899287667486787              -0.8376764647240749              -2.410850528888584
H              -1.322569957938438              -0.8307058999916156              -1.7648909184542916
H              3.8469613578563457              1.7779364947912812              0.9139843918741054
H              4.598441597739119              2.045515580228028              1.0431023008961888
H              3.6497096013462342              4.1861794593823              3.147686296722364
H              3.941043038456874              4.141444662786963              2.4299898144615146
H              1.3152802703206268              2.101533033837588              2.376273621784112
H              1.7754846530967696              1.8168722690171155              2.872123762673925
H              1.7641007559709343              3.924488276597709              0.33080428014174595
H              1.4492126559043843              4.040314464364009              0.9572986589237706
H              1.9251085476978207              0.8988295792065101              -0.4765267181524984
H              1.5060709437034532              1.1984450116511773              0.0661475074711761
H              -1.7047256334991434              -0.7181419515696743              -2.4955701180182195
H              -1.2104538109994178              -0.6349301076566578              -1.9315244329654608
H              3.7742312476601287              1.6678890885763804              0.804875237332048
H              4.319711502453666              2.165058123297925              0.8517310824996248
H              3.7130819634367067              4.472898884322553              3.131165130437575
H              3.89269738061433              4.4028443328266755              2.4152497441294414
H              1.5796228972247797              2.2141195213050087              2.430401056861046
H              1.9362219435377082              1.8020321137409059              2.953909965485384
H              1.6525721768680504              3.523177782614243              0.24579733410043053
H              1.5933769718986142              4.08836858284935              0.771702703520868
H              1.8247872780080474              1.0526483778031195              -0.26628934362617174
H              1.1304374490909332              1.0784714553894614              -0.13655822322476482
H              -1.6225046069328304              -0.7436322241230107              -2.584511994383265
H              -1.1602504305710506              -0.8288579983851896              -2.074096042377789
H              4.109840715859763              1.6637771901175762              0.640821336092571
H              4.484693217397668              2.35118460364257              0.6917844752312893
H              3.856416255464774              4.723915001625736              3.1282525170834354
H              3.7340104410514643              4.349869423360949              2.4849720737773926
H              1.5895504397697748              2.24411052837298              2.294372941254028
H              1.8772181710310663              1.9425762872534498              2.9070151315170785
H              2.02445503006333              3.813555935804934              0.2950335067616153
H              1.514614094905041              4.213415968236531              0.6021212493170295
H              1.7508248888126137              1.0260614876541503              -0.5675186555149657
H              1.1810649257559207              1.261892435571173              -0.3002051732148821
H              -1.5782312226561415              -0.6547700915731589              -2.5375622269798335
H              -0.8728533767852722              -1.0735889061120718              -2.2707951973433853
H              4.211541940133301              1.6980598096727626              0.6866141167882923
H              4.458364790588331              2.360335587893469              1.0909058097942872
H              4.022268367455724              4.301939442910125              3.2709695273166552
H              3.6228435412947557              4.397591722659916              2.638721789458918
H              1.3618042098607261              2.3704113911766314              2.4631181235541346
H              1.9139432875608913              2.0240416476657117              2.849665086534367
H              1.8992990587111782              3.681612026917116              0.21438312758489123
H              1.527281714996355              3.8027681016622017              0.8649167407911413
H              1.3093812568618646              1.5632780601337541              -0.7266983370180001
H              1.7706895015908022              1.2483449995594302              -0.19662199770264838
H              -1.4631805973093972              -0.6289474998403248              -2.211373422451861
H              -0.8411881882173791              -0.9584142468305578              -1.958564670882931
H              4.226655092432952              1.6855270274741063              0.7742755275489992
H              4.271105480371558              2.4826641695064247              0.6355436756273624
H              4.107823135896825              4.162884978142137              3.1028783367103014
H              4.136036204633892              4.378590658507222              2.3207577161797808
H              1.5939943913007133              2.1605539124009785              2.632407685698842
H              1.7301229473266848              1.7879034530772093              3.3252618738685245
H              1.8016628607729004              3.7261375536911188              0.4020758154405129
H              1.4746566216171901              4.165526740916302              0.9713981173643229
H              1.8652488165708414              1.308512720047575              -0.4978010146425585
H              1.2345639247330296              1.284909370980263              -0.027710509895288445
H              -1.623285682051086              -0.4918910273330235              -2.163789072755945
H              -1.4648312310832097              -1.0329587081182672              -1.7261166638359797
H              3.845822163246645              1.7806047417278608              0.5467671303959776
H              4.135052694669361              2.2545696247866687              0.9904698653202805
H              4.018970411324695              4.172166413506843              3.1900445633566683
H              3.940522188785573              4.04534112965168              2.4523049282901135
H              2.0490381019429385              2.2605139353099353              2.7169708376615085
H              1.4121909921378768              1.709925229233861              2.8660131637988555
H              1.959837298012226              3.882874374251403              0.5427769857371373
H              1.3367363146122602              4.156215608934024              0.8639131828036545
