72

H              2.3889779034551566              1.7176568790329871              1.049715979358323
H              1.6996750994917356              1.4592762646629756              1.1211677137082003
H              0.046126242911835556              -1.0788521541597318              -2.01164048593558
H              -0.7039426929934729              -1.1248614434722963              -1.8515878451675676
H              4.73398635630627              1.8996764247548852              1.0558747475450019
H              5.022187018408374              2.5510868942514198              1.1054897200842255
H              4.051878722506236              4.833313616186498              2.523893601879628
H              4.040767748461903              4.668705479308452              3.261070296839295
H              2.427720804146837              2.2736739525771488              3.781860736367559
H              2.961271227966862              1.800275593229434              3.496425272776551
H              2.723054127524419              4.322331297677905              0.2523848402199613
H              2.9974529149380063              3.6498951225499              0.4501741006592876
H              2.2416871571870636              1.7854759444925126              1.2995285562309113
H              1.7253048457156428              2.070764235841787              0.9164758247529751
H              0.21388615356766544              -1.0062066217864194              -1.8583065745477714
H              -0.45424606188250527              -0.8512021596684626              -1.719265126566422
H              4.60409013292068              2.036615984640285              1.0940579687506653
H              5.046590076374825              2.5292828967306025              1.4207439984243355
H              3.978502391578875              4.8709484352448325              2.536640398428748
H              4.489915226895151              4.831661032791405              3.0612031926068837
H              2.5676159481771106              2.2970920474371757              3.4511640462194038
H              3.2890997883846973              2.019374110825287              3.305605362763476
H              2.9803560859769487              4.487616359585151              0.6162872112140403
H              2.8491721336218125              3.798959377517273              0.514225384396472
H              2.2250190478366245              1.636667848234352              1.1259203411972012
H              1.7613374332026812              2.1481667093189047              0.861315277112739
H              0.1771505144186245              -1.0266330698340687              -1.7825167213226998
H              -0.5987642455512241              -1.266264170833285              -1.6419686808474088
H              4.661704148395947              1.9544750506645987              0.9174949201359244
H              4.788634708995571              2.6844063067867037              1.153411907907922
H              3.8903309966904027              4.802139541460298              2.5485642966214934
H              4.334570984076775              4.73489282127016              3.143514534367586
H              2.8301728654226177              2.4963325475708147              3.5738431202127376
H              3.0166857049825206              1.9299631620892432              3.2840106189399614
H              3.099927568602279              4.47106011012407              0.11264789496708003
H              2.8318332847527024              3.956367517976668              0.5623991871748626
H              2.304861915576123              1.6785883588156623              1.041292924742892
H              1.8270929808593253              2.052296632844887              0.6219120885159571
H              0.10578507404839614              -1.259957249950558              -1.9533539939173223
H              -0.6542174248816323              -1.5470286305574101              -2.0083298080342273
H              5.072502527045424              1.9830543536357206              1.3619261702091536
H              5.198827081384393              2.70283698230818              1.468261440557587
H              4.143762939111932              5.016911170909712              2.490878404048266
H              4.1243207138411515              4.531112936092422              2.9987480805306865
H              2.399984033600851              2.2923693418894198              3.8065880838573074
H              2.7452461213443993              1.7451167801052176              3.6127937400406163
H              2.7610333001101606              4.347283917843466              0.10900071431567619
H              3.1124394793993466              3.767780607205548              0.5320480471383479
H              2.2159030256439283              1.2320519488599722              1.1813737695478395
H              2.1052190902775685              1.7756861221046052              0.8056047366448222
H              0.0432881648186549              -1.205551366964679              -1.8449385382543206
H              -0.5444117717794901              -1.5265681458026463              -1.9378077300210987
H              5.089569761768831              2.2429514900556593              1.114495819144544
H              5.1146106192719785              2.923414745925358              1.280484217100526
H              4.371274364338882              4.672668866744125              2.5008780172272167
H              4.324822881255872              4.7475382490911375              3.185083884455782
H              2.1850882170727712              2.410812186805955              3.6653980223973166
H              2.884492148853329              2.28623263091646              3.693727759832033
H              2.7227022081699626              4.412937929853589              0.2992200196872005
H              2.738597542817177              3.705099997685501              0.3687464359004857
H              2.282123569900773              1.6079926972666978              0.9375983937768666
H              1.6349189533998763              1.6258151428718022              1.3560514274649167
H              -0.18444939428658477              -1.2259306694629              -1.866074065437304
H              -0.8371446015195286              -1.1761921431431757              -1.8862470649993557
H              4.706875602525227              2.4020563149599834              0.6531340641233143
H              5.218837290186377              2.594096366625306              1.113921820614304
H              4.04133430657481              4.8249228636880765              2.4860188305622146
H              4.328523003031335              4.847685985685646              3.2305131702034786
H              2.380502842310422              1.955245846292538              3.796997380596869
H              2.9751279414471536              2.2662569617146056              3.5762145153499607
H              2.618691833323074              4.372757801629232              0.36350091834402015
H              2.8256998930281614              3.7590003011980735              0.585099419959542
