72

H              1.1412241931391158              0.851275971337902              -0.4124252077218284
H              1.1124035122207376              1.0569408787048507              0.26982544342550036
H              -1.750508503287086              -1.4466678491022003              -2.4661431027969183
H              -1.7787060679986084              -1.5735576556398774              -1.6346207356934968
H              3.823124982666378              1.4614994478574657              1.0525461597454924
H              4.299697597634354              1.9169448242568359              0.6681213554084906
H              3.794789018879232              4.669946135860867              2.632161397722271
H              3.952322612225148              3.9893987488944056              2.5927551875679624
H              1.3250562663336214              2.345868136371273              2.533025466247423
H              1.7795710353694754              1.8487947533320843              2.8645680595633713
H              2.1966647612713572              3.9457146208256164              0.7434342423562038
H              1.5622188359911549              4.268747649354294              0.5541662935680494
H              0.9188438044585223              0.9505591225375576              -0.4713176442230011
H              1.0464864443480177              0.7917398907103581              0.2894322126290412
H              -1.8801411770718275              -1.3503940833448629              -2.593847168343203
H              -1.8960683539651473              -1.6588028755625497              -1.90120660284286
H              3.5113146689853414              1.4800337939328663              0.7887951340558841
H              4.039955249586786              1.8403002823098218              1.3103559748744928
H              3.8582067130816187              4.6515423922810095              2.8602974052681054
H              3.560216162687872              4.007319941958733              2.6885799566267687
H              1.1181598032575033              2.3636589165971835              2.587195931568155
H              1.718343608298417              2.0314805735126127              2.4357693659023103
H              2.0350810739032097              3.9099145227485006              0.5239102755598534
H              1.3719328268589996              4.091022036704727              0.8645190078316846
H              0.8729770786242758              0.7537454015389448              -0.5072928425680922
H              1.222299309598309              0.9299684771767132              0.18503110755858493
H              -1.7153195864536956              -1.2109684176597895              -2.5442478894443163
H              -1.4866422240309203              -1.6288619870729184              -1.9764546879617684
H              3.844855363837079              1.4292875624847214              1.1172151330297617
H              4.246808822576992              2.096773561038696              1.1376617442757955
H              4.2423524006190485              4.786009410714241              2.662818722466779
H              3.740592622243434              4.25416774239608              2.647183818947133
H              1.1738476605373498              2.2939904129486712              2.800115160452007
H              1.668036074748809              1.9543523648617884              2.2442407223225196
H              1.852102481181401              3.8358482528416906              0.4583241295391792
H              1.5520810761594204              4.186266114352909              1.0337210166956516
H              0.8471899482389623              0.6830074587218892              -0.5126778538821676
H              1.091816674210823              1.1448388445231172              -0.009015049889064116
H              -1.625129665888457              -0.9535644788613444              -2.483780935578731
H              -1.451130706622799              -1.4496151968730737              -1.8326065834466692
H              4.013381737964732              1.534998289747473              0.6273440483196742
H              4.025394939803095              2.240955092322442              0.8332115319078918
H              4.346351534259472              4.550931776387974              2.6324686725142303
H              3.739277857343646              4.185358362726289              2.902779449805351
H              1.453947473964821              2.4556530518372517              2.840853481057892
H              1.5743874258602568              1.8328537575252513              2.4777061491655785
H              2.0162777176363464              3.8279620686911477              0.2428931873684871
H              1.73073499773875              4.105785051405593              0.8192659073997494
H              0.9741243764892631              0.9473640926038579              -0.5880949197273453
H              0.9653105885746855              1.031231262642188              0.16553464481654157
H              -1.3849050120690019              -1.2536227097567165              -2.3482834149183134
H              -1.332486027402081              -1.4135199956257787              -1.6997013247118467
H              3.94419239390098              1.6555001185397216              0.6005519478056343
H              4.365319383363857              2.0774776960929953              1.0469531019456426
H              4.3650786143620275              4.237535777148232              2.9090421804718747
H              3.7796141881665717              3.8289777691268725              2.846379541869413
H              1.164384236444078              2.3362410028979794              2.5351332058054714
H              1.8092065691444617              2.0586601547272543              2.5704216863275327
H              2.2232688187558005              4.123208988817154              0.3129957064673651
H              1.7283503230678001              4.065700002590149              0.8480606571723973
H              1.1009881247146251              0.7650290024836696              -0.2794105707955384
H              1.1348670832498489              1.4703168116026348              -0.20379595829637165
H              -1.339496330625969              -1.3250739950414883              -2.234572779916891
H              -1.341624974177633              -1.466458506571077              -1.5126933592523926
H              3.861336033097187              1.4699224438982672              0.8301358340791443
H              4.258898226119133              2.0371696516143984              1.1789752559551845
H              4.2612296371737655              4.240736053773812              2.6830874769801274
H              3.714842561613431              3.835810546464983              2.9516324663632827
H              1.1496155790097864              2.541477422873162              2.938052644481647
H              1.5883761601210789              1.779836996012996              2.6462419586611667
H              2.193627442070219              3.891458551549085              0.39747891698301085
H              1.5762006709765908              3.729593655998793              0.7129327517547304
