72

H              1.5574808666272826              1.6204779819918882              -0.2562151712143735
H              1.222744049642675              1.1822835306986044              0.20133902956434346
H              -1.4389099357070287              -0.376232726108432              -2.4589158077062314
H              -0.713256086271847              -0.6192191807765516              -2.5260473935904892
H              4.519605134442113              1.7722566117421672              0.7344154821269409
H              4.764234068427212              2.433628084650713              0.7452889671952455
H              3.6624397041735177              4.172246838701246              3.108576583379438
H              3.8801572931978363              4.681148272709247              2.615492841264683
H              1.8808627309892956              2.0074322687717894              2.1841525426677593
H              2.2092537738550755              2.1658617952689827              2.904291496603283
H              2.231081844156961              3.824838777089259              0.3527947994721438
H              1.7078768416298407              4.033621400535474              0.7914132629909264
H              1.4858075911478819              1.7394156738098536              -0.3373417790435261
H              1.5878825656340276              1.2400319856542699              0.1995902040261578
H              -1.3001948160366237              -0.273349542118776              -2.1403287655167254
H              -0.5926886551484938              -0.4888023632117298              -2.12239949437648
H              4.178637870926549              1.7391086519222856              0.43203166910296353
H              4.370947027400227              2.4415881566351767              0.641835604315363
H              3.907816343285466              3.834764990076416              2.903635494755665
H              4.051369046566008              4.539666109905815              2.7790093241767737
H              1.9376124780045472              1.8013145533018817              2.6039423718517
H              2.120703491331927              2.041408680695024              3.2497223459460938
H              1.985245537873555              3.848807056042791              0.32726400416341167
H              1.5905692034855916              3.968467807197538              0.9668208662431141
H              1.5783644247613786              1.5240394102987262              -0.0021274951067394346
H              1.4692439816462006              1.0238322545402172              0.5587011199829861
H              -1.5450670202591958              -0.18191996126831184              -2.101695918489575
H              -0.9579299014463424              -0.6888306665448789              -1.7599643983575863
H              4.1531666533474345              1.6962277643651764              0.5706545501292195
H              4.448049298227104              2.3068118830276325              0.8200606797683769
H              3.773051536911865              3.939525920468696              3.025216629855985
H              4.174154453329921              4.37587113708398              2.5661788930397984
H              2.167539217439794              1.836079407310903              2.5367059326388657
H              1.9502402673370867              1.7339436340260457              3.2840147040507373
H              2.1160905129833805              4.061843296875115              0.4955977396481076
H              1.6154679502268496              4.37627046690987              0.9919416413326808
H              1.7286021428463691              1.4485912028328294              -0.10574492168320743
H              1.262891088307816              1.1111190138994622              0.4451996809911382
H              -1.7752969540853027              -0.4216069364131123              -2.342928814880448
H              -1.0636003690839104              -0.4296205494059611              -1.929838538116549
H              4.149861718373927              1.683460252876305              0.7001936624023618
H              4.605807074074907              2.1758854641365755              0.7805490594640232
H              3.357223329785961              4.033876241556294              3.05166873920523
H              3.9001624360166787              4.342183440785813              2.5748357069053376
H              1.7630643212116957              1.9433386212525092              2.503007575631092
H              1.9579341655042668              1.7390098491587485              3.0894537240662867
H              2.0313559472168303              3.934742499520563              0.29305880771500586
H              1.6844038939389658              4.113759858854441              0.9062331561190132
H              1.745667463144076              1.5553421968336587              -0.007540650216021976
H              1.2957932608639315              1.052053605382783              0.30303808422015743
H              -1.5494434268758075              -0.43112227781481577              -2.4400486653980433
H              -0.9512540478536811              -0.2751749074335611              -2.147967422130034
H              3.9213236025570573              1.8003147988922907              0.9207783329785799
H              4.45287165138575              2.1569045914403318              0.5527724837903786
H              3.380994078609594              4.208018428740517              2.8336718517729995
H              4.076998045496388              4.619814625952787              2.6860334248443394
H              1.8897092991589863              1.8576123139893999              2.407097436740376
H              2.2990836729758763              1.8227599877748846              3.0642079768636057
H              1.9501347267607254              3.834230530077398              0.2832672869522975
H              1.756373860257879              4.359850992421226              0.8536448655940297
H              1.7525069180746393              1.3874118227805177              -0.057769662204886704
H              1.087981669049334              1.2824665690989854              0.28388366530611164
H              -1.4357446873238502              -0.3839165302396962              -2.4179892944564667
H              -0.7865588907880557              -0.37433521137895714              -2.182399396867774
H              4.126653734076172              1.7491714492616504              0.6610813838621372
H              4.407206217046831              2.4592999228183623              0.7452316581352788
H              3.5862263269429357              4.402840353006297              3.129930769787355
H              3.8058608272770913              4.580840331893687              2.449365428413638
H              1.8425663680576398              2.1925668339439017              2.4178862829504726
H              2.3238812959451405              1.8264884168977218              2.8167925289755256
H              2.2423669485736264              3.8844032699894417              0.2861875771760405
H              1.746787563488143              4.127340518656499              0.7756886228581282
