72

H              1.7138927471678436              2.118360473504602              0.2822038839472348
H              1.6063799116573452              1.3757173316407632              0.5161541126301039
H              -1.015195482119961              -0.2674705691787073              -2.193821129584818
H              -0.1670990009278861              -0.09327105326764613              -2.189457125030802
H              4.415811324156687              1.912861211438555              0.8461776562127313
H              4.588480981473183              2.452458988339962              0.443039434689996
H              3.719576702279362              4.325439981066663              2.6785842243755527
H              4.131340515039935              4.6193452949993254              3.190843698453041
H              2.3741561172918293              1.3766479301987704              3.198270504188275
H              2.8465347165094257              1.9582483802812178              3.337797148121599
H              2.629271749390713              4.529118680537502              0.3433935491404172
H              2.258648933901636              4.067557702855275              0.7496791991707494
H              1.9061181221933345              1.7729128658379965              0.12075653487869122
H              1.5240266601380439              1.402902780510328              0.6713417377849727
H              -1.2485530334026307              -0.136403380947753              -2.1106414520971812
H              -0.5639033696474429              -0.1969335066148175              -2.3344598777135124
H              4.582903917780513              1.8425353814911463              0.5515325664985801
H              4.528036824325355              2.5192027311536207              0.8287135081142983
H              3.586194215308568              4.220618894333894              2.7961139886653577
H              4.053388925264333              4.745025314814581              2.998347535719124
H              2.328268221356604              1.454920137822496              3.0243511330432806
H              2.745299018822978              2.033984516342736              3.3296127372422046
H              2.6245463079912876              4.31655304710825              0.3426722092936677
H              2.0585950487061995              4.0774358359353196              0.7765222004400213
H              1.5297742326674177              2.067619146725206              0.23818124245329017
H              1.8267814559855824              1.3846738210907115              0.38055057673773723
H              -1.271814569115042              -0.045451191086962626              -2.070676781945826
H              -0.6555482483053452              -0.059681725455240364              -2.575772962740683
H              4.630771160961109              1.8662316113046942              0.6716125433901731
H              4.530557509720375              2.447691026373806              0.3312717482674631
H              3.7270665737663093              4.384625186639301              2.4933708023263583
H              4.046587046961507              4.420446728200946              3.1537654314378893
H              2.338441123886487              1.2311452948210508              3.0781375466261482
H              2.7119626255359415              1.7854591590589672              3.3043995352235194
H              2.4708709282933112              4.402664029379478              0.2833252875215136
H              2.033581828040517              4.388809934797391              0.8727851080146781
H              1.7846282013383823              1.754377893645367              0.28379817781375755
H              1.6029414400803699              1.2593415024522263              0.793834819913812
H              -0.9959668541180117              0.1559994659049417              -1.7796777069457876
H              -0.38217022540452716              0.21345943364801911              -2.316386920551251
H              4.120689744535828              1.8458851206587599              0.5894233080678621
H              4.225137407076803              2.5240847164497735              0.5205026204670414
H              3.9405863094732982              4.220742949308751              2.5554937501873236
H              3.9495780253213604              4.298187980204503              3.269595659398401
H              2.290812464946529              1.5933643549318455              3.139277786744709
H              3.0279691969167324              1.3876589406816433              3.2519507912368137
H              2.2191012949996596              4.417871224784358              0.24153891772862018
H              2.4419410782037168              4.353788214701469              0.9195937568794369
H              1.6761478851925695              1.6764506253059286              0.304252493729192
H              1.310029099267271              1.6850375233155193              1.0074125691268132
H              -0.9789375512378624              0.008850729290111296              -2.043056879078718
H              -0.31197330571367016              0.19520818955101835              -2.20559085689154
H              4.74893205183075              1.9211137893118833              0.8098662256906791
H              4.578339262728863              2.5235332262198154              0.45092281898435227
H              3.7382640438375723              4.224410946358002              2.5723840188627323
H              4.01362490154653              4.553901938180701              3.2207257135077545
H              2.458740365265368              1.3394756928508442              2.861558589791367
H              2.9042330702913906              1.8813424226141546              3.2113952479764745
H              2.775767685972599              4.187777968366278              0.2312777898348445
H              2.4515936179053677              4.59358582791034              0.7101314740340483
H              1.7786019920472862              1.9690831571873646              0.29416261504559593
H              1.4937032969434192              1.3792739704871466              0.5307121444279774
H              -0.9356426384227376              -0.07077313808420133              -2.380219624672926
H              -0.3062833877271552              0.12643915201996017              -2.2188435062393075
H              4.457147085792024              1.9343054734452778              0.8149660908818476
H              4.563819552947747              2.4994198442716384              0.295673924119642
H              3.588240165040628              4.133471888474149              2.891239677070152
H              3.860023113845933              4.662963592100688              3.286210875979939
H              2.6484699921937778              1.5794728704210454              2.734948714028414
H              2.624900815927385              2.0019273427492483              3.3806994734587064
H              2.8375312216150177              4.164628003559529              0.12030217635518609
H              2.2560947106919365              3.9852657461536887              0.5630885271415419
