72

H              1.24647982018353              0.8470916494902957              -0.14260686062991348
H              0.6259047908630704              1.2235513117850276              0.05717216994366789
H              -0.882190656643115              -2.28035586518581              -1.909860998654127
H              -1.3572177466896724              -2.752994487149016              -2.4045608192524597
H              3.9986854640510283              1.4616568456557695              1.5371107681671627
H              4.320117133738113              1.6372744806281108              0.9371399332459558
H              4.26168601741895              3.5388406011915854              3.44207539992158
H              4.244514925394967              3.7898588205614296              2.7845082959657024
H              1.6537457652048801              2.4540177788830366              2.588492341394133
H              0.8894701521642326              2.386631767038134              2.479905421618367
H              3.0962359347293456              3.6669191869509996              0.33507297949432574
H              2.368773750805115              3.5686269571395863              0.17928299591030916
H              1.1428615205657906              0.7238557197060376              0.04585321423899183
H              0.6900285538701743              1.2563256110190533              -0.34775276048046694
H              -0.7659253011588408              -2.6941872764467014              -1.9141684470615659
H              -1.4177289983902384              -2.642530672838573              -2.3428274004472667
H              4.182887476646392              1.506856399276891              1.760305655568366
H              4.541191092536851              1.7587500721040086              1.1089685320388323
H              4.166855125616079              3.601969079669944              3.419390197300094
H              4.294660711092321              3.6582699372244343              2.7539389261950924
H              1.6875761572915526              2.177187432869011              2.3541120236248507
H              0.9720721551548269              2.3564740866895364              2.1705476096375826
H              3.214060175881597              3.6821616684769385              0.07866645116670648
H              2.719875685064347              3.532403329003172              0.6136157412017152
H              0.7316722218546416              0.9286321434990994              -0.5511207711564494
H              1.0694106729355586              1.138388795799828              0.07137489903466333
H              -0.7914023029257503              -2.617061812744103              -2.053077129942834
H              -1.390079825284834              -2.845115059248948              -2.32552609696327
H              3.7516941152835837              1.4681669359039602              1.5302621173160769
H              4.360981179280541              1.3497777028341222              1.1849750982490008
H              4.026703188012064              3.3374663228253505              3.4668607743901934
H              4.038442590059809              3.7404462387139317              2.839337501287642
H              1.4534757878550955              2.053612568348251              2.4662520027809602
H              0.9232693374725912              2.3783871827575758              2.0413180193710887
H              2.9490758203684666              3.476182552074612              -0.01458309545227967
H              2.595106545826702              3.5150780551074474              0.6239984512234759
H              0.8336758535266361              0.6142105674922956              -0.17268281459069923
H              1.4561836580388825              0.9291989693809858              0.014975509288138301
H              -0.9706021723865375              -2.6757414894169043              -1.928810628561545
H              -1.5197925318367145              -3.079514233360481              -2.3448905870275243
H              3.6977482962991814              1.4441186486101105              1.5560576495014906
H              4.388732397915914              1.2230600936530815              1.4351599539409796
H              3.945346233115331              3.7955847929856845              3.307381287204523
H              4.396670441442152              3.655569406734383              2.783618669051451
H              1.1807417379214458              2.038214593707556              2.0023106652332365
H              1.1990187041899645              2.2410013565165787              2.6788012947934225
H              2.9128068348942597              3.467200973944989              0.2723102478846543
H              2.2641230991999493              3.7539313601199              0.4531926231882017
H              0.901617911172015              0.5822258102442606              -0.5053710761115007
H              0.9754645577881955              0.9811503271298554              0.17500912688389358
H              -1.388403800597053              -2.6784291378170932              -2.1780466982280173
H              -1.7436331371236717              -3.1616302086806347              -2.4977215366760417
H              3.982734866016089              1.2272644549298055              1.566732338859586
H              4.59925578364718              1.4939181796049554              1.3890975588868386
H              3.7543041239514063              3.7715303208004425              3.4281324731273015
H              4.081088977635081              3.9859188175076623              2.8717737879770655
H              1.2783286113912224              1.9604078484552618              2.3453120647786974
H              0.9945469597649591              2.4766584481539153              2.623667710348013
H              2.7237195458906793              3.756536008703741              -0.07131600696582763
H              2.198732594943338              3.468823666403331              0.3303761241959157
H              1.2745197448023615              0.6021756214379724              -0.3743546860912818
H              0.8316259975510017              0.9759446045227393              0.06566700632895346
H              -1.1386332719422911              -2.5253154728155414              -2.4373313813415005
H              -1.5809260616067502              -3.0230343906451553              -2.412647762837065
H              4.0732517764379175              1.5150323748380987              1.5458107653621864
H              4.612885363790368              1.3902526263533348              0.9644813016254288
H              3.8394043597114775              3.645904486565859              3.360979432492331
H              4.057685533671621              4.057503113621262              2.7804481946460555
H              1.8160023151084876              2.3284007562010807              2.186378910773732
H              1.1505369555112066              2.6242752837670906              2.3965460755374783
H              2.729563870637626              4.149932862011054              0.13982540959004466
H              2.309724400135014              3.5796189387525503              0.3312726721331508
