72

H              2.380743338912971              1.752265277718969              1.1487789686337027
H              1.7644890390047894              1.404954777002643              1.0139579611332497
H              0.11801069490963727              -1.0703564276697377              -2.0541364869195062
H              -0.6775406062562738              -1.1107333968552962              -1.9001088327097626
H              4.647745360328564              1.92189228143661              0.9961648276984466
H              5.029013611241392              2.6064851003261142              1.2038709923393673
H              3.9763930087032135              4.7820334633835655              2.487220909786255
H              4.068947214814083              4.70520901254391              3.189779125445018
H              2.56302635504434              2.2904058529273033              3.6928625133677926
H              3.0253773077224246              1.7839599782956597              3.5759613208694425
H              2.658366964428395              4.348392045610485              0.24750238103711528
H              2.9766465850321735              3.730121250113509              0.3874464872431538
H              2.268950213747313              1.6424155905396625              1.2546904925687197
H              1.6337108365968065              2.03773322964446              0.9969358142747046
H              0.3186096731012144              -1.052533424544651              -1.9307747910763395
H              -0.37238391480036004              -0.8196134895592634              -1.704855817854699
H              4.6743075373284935              2.0023501267268347              0.9949859693753544
H              5.073780342482474              2.4176205699354454              1.427977988898415
H              3.876398814056984              4.825915077305993              2.6208380631545487
H              4.487940957936292              4.795295760992567              3.0825278342446403
H              2.6727700376276307              2.223839034049717              3.3558158092321477
H              3.220639142448782              1.8540792813961293              3.3327941500270923
H              2.991014793525945              4.5436229144453035              0.5874413801097159
H              2.778524667250037              3.8401693185355272              0.42215726112065477
H              2.1387737472560038              1.7049091215350256              1.1370250105761628
H              1.7305570941844612              2.256931142936375              0.9033865741370163
H              0.2126093588336234              -1.12025430279549              -1.669326456087023
H              -0.4709779916554441              -1.218824187485532              -1.6079856783866697
H              4.758960002721266              1.9441060452381902              0.9344606043058867
H              4.8341183040138285              2.6391510921964065              1.1539071973020758
H              4.003938911429114              4.701024995116099              2.599272794085753
H              4.371607139743253              4.74588202987792              3.208259346927425
H              2.7171337753317637              2.597068538968781              3.63908945006965
H              3.0121789415567792              1.8627122624254413              3.3622965442879265
H              3.151703877231859              4.5335408357920235              0.13935194667562878
H              2.896612593525429              3.999616957124965              0.5465775867837478
H              2.2835534475424684              1.6628377684126683              1.0858142695772657
H              1.7711201549632587              1.9600160905049167              0.6192224798791928
H              -0.044568026151524              -1.2563313551481308              -1.9129637783933258
H              -0.6975059571632444              -1.4499817994727031              -1.9146349500335988
H              5.04868202828949              2.0106119594763228              1.2672884657795886
H              5.083795530697264              2.6823923247686747              1.5190540236940342
H              4.2198622392534              5.030601494150414              2.437628553160798
H              4.12037348329287              4.626740228055472              3.068205225308964
H              2.3546692928937096              2.386539004039128              3.8531873374328063
H              2.7488612411508098              1.7539063736549632              3.694418753810997
H              2.79686801849752              4.258180717989279              0.11627535912084068
H              3.1596945193679473              3.827029245292066              0.5604837685787929
H              2.303095559421753              1.1984086113103787              1.2438218541395867
H              2.033484429697523              1.7599410024259712              0.7388042397299608
H              0.08809078609655137              -1.1527045276961456              -1.9580729512126633
H              -0.6309057694901923              -1.5354735871691247              -1.8664719883766852
H              5.043031482091504              2.191552017927405              1.0284339249318803
H              5.146210430880066              2.9471984128123223              1.23047796406113
H              4.292991925877397              4.75754493182413              2.4194470088058746
H              4.2156525627563415              4.775996207062303              3.210614664966602
H              2.1057583894173164              2.320790492085057              3.764621863305069
H              2.880962564775896              2.364581207030047              3.620883518898712
H              2.746449296272268              4.398532426455462              0.2996592292059436
H              2.741900316958889              3.6600852012631004              0.49076337732245107
H              2.2281889321088437              1.6023115303647846              0.8951338539361751
H              1.678025786444628              1.5768399379112157              1.3013169061665237
H              0.004155261082605391              -1.1531328884452132              -1.8552053980939263
H              -0.8233880656105584              -1.21857796327482              -1.9139830612108566
H              4.695118609191655              2.331505164477971              0.7180739649246387
H              5.271795552683077              2.6478741218682353              1.085389217313152
H              3.945791844301868              4.798808776916634              2.530844181804645
H              4.255901767635615              4.823627120821228              3.128491676899584
H              2.307476091599449              2.1477791995347215              3.7557001590728705
H              3.0147276816752457              2.3516919087787613              3.6489983068579726
H              2.530553229712478              4.3693284248311315              0.39082753781430285
H              2.8658572793733987              3.6633021205713705              0.5622017374534451
