72

H              0.7853197738133451              0.8303735442935959              -0.3465610279474909
H              0.9084820735947134              1.4665022548872348              0.041211397348016876
H              -1.5629117771995173              -2.1737289309912255              -2.168662314064821
H              -2.09023827128524              -2.1835433206287136              -1.756321531951766
H              3.5759772376902843              0.9604447336435614              1.1046288912022437
H              4.095502939555816              1.452963333676102              1.128800135211196
H              3.528704219506744              4.04752981190773              2.6367970199939363
H              4.129664006043844              4.075635070363715              3.057547288765928
H              1.5659428215226723              1.8585527927734886              2.773890157716416
H              1.8315414819387443              2.256079925765355              2.2004718919101274
H              2.5498466164787876              4.043821123466995              0.3445945831922941
H              1.866469519198599              3.9210587784698485              0.07029079028377473
H              0.6373694025850546              1.071722025346648              -0.3964932999039969
H              1.3661356084864893              0.9424126281870319              -0.21267023116945155
H              -1.4519468293407596              -2.1689294191652704              -2.5256716655514557
H              -2.1076417186626726              -2.311697055023887              -1.9370754009012348
H              3.6258093762167887              1.0190141058324003              1.2362516142548308
H              4.3512584072802385              1.1513013891744632              1.0373878446494815
H              3.6701068412651208              4.315191749001779              2.564202952478803
H              3.78326186292559              3.983603244913304              3.2143135616332326
H              1.5041141920038161              1.8777714525260125              2.4868343773712835
H              1.8738694544032346              2.492896878828765              2.3915290734550068
H              2.382243295296664              4.009508958056834              -0.0691651507657409
H              1.8254312847197904              4.14535288755851              0.38626111768241417
H              0.5056808655479259              1.0830088183837903              -0.40313010757124573
H              1.1021707634058995              0.7499304126444853              -0.27611940478809144
H              -1.1978608913889428              -1.9498667678751196              -2.4120277220337516
H              -1.7646470429809236              -2.3699305306733134              -2.0500301835417156
H              4.069520047693846              0.7816089846500583              1.105882688617488
H              4.1995330377224995              1.483572201818672              1.1684828156596945
H              3.7097334166324374              4.067243550018522              2.6045163361388797
H              3.860450296879282              4.4613722465816075              3.1424232681086344
H              1.5550324049836561              2.1074267219634395              3.127100669660499
H              1.421078696827079              2.1535860970406673              2.409159110471672
H              2.4648894285529708              3.9253808891352904              -0.12631815210813066
H              1.8113100007763616              3.9583428515237324              0.20466037853923896
H              0.7372559429728207              0.7947151463632837              -0.23346988185614073
H              1.2850610235223414              0.5234544466956655              -0.6150850565399076
H              -1.2256644751135393              -2.0678389476818055              -2.5072230885827826
H              -1.6653886982560073              -2.2248106077758005              -2.031028461552909
H              3.9544239857755987              1.1007408759320907              1.1737615231391325
H              4.267628908837004              1.560011819547921              0.7226695593772137
H              3.6851973655063865              4.094073639648673              2.577663257027574
H              4.18974020259622              4.373523058189569              3.0302129199197627
H              2.028028851464325              2.216335328445995              2.9236263141063628
H              1.6033953600746886              2.1544210577384275              2.2950980967571444
H              2.756264334977402              4.074301483809245              0.04063846948289597
H              2.0840852856935332              4.216525925841771              0.39828761576380567
H              0.8465037300211692              0.7941784311007907              -0.045823851737107776
H              1.1409041504219943              0.8675973826781747              -0.6667495680035084
H              -1.0306660804695054              -2.0860810932724068              -2.2430813664882656
H              -1.5872829774784707              -2.1359194848059984              -1.709352895807461
H              3.67198237477708              1.0303514730589107              1.0192768183383405
H              4.021133829092513              1.6334214008937968              1.0206207642571399
H              3.821273808230961              3.593770695076816              2.646580005067821
H              4.165640146659408              4.0215015901511              3.2201850621402155
H              1.6352686250792592              2.0994233993963545              2.942023776743866
H              1.4730426701033554              2.183532675455751              2.2468286726230167
H              2.516725479717014              4.281654410719387              0.06680360456276152
H              2.2257519156906787              3.9582037165424766              0.7066731157114671
H              0.7770755940464597              0.8025276584095947              -0.18581058457901142
H              1.3633204707563888              1.0423285510357134              0.10514947002682937
H              -1.1338093498418944              -2.1099910854633794              -1.9843499417764336
H              -1.6830692660218798              -2.316785581946899              -1.568806926870596
H              3.622824476107412              1.066288278183271              1.3819407640701622
H              4.183745869942459              1.5415477943342768              1.3063487230105895
H              3.931085760299235              3.7368425330438195              2.5817777123385515
H              4.366393653444423              4.040182574602474              3.0770053031088707
H              1.3167375706470466              2.0541662789265693              2.7357411075600955
H              2.000324348162568              2.0270656043687136              2.2790626694818985
H              2.582661591721115              4.216940752469937              0.6503832550052637
H              2.0086538736150055              3.848170332984913              0.32551486566715504
