72

H              2.0336650142436756              2.1658818726824434              0.276532562566901
H              1.766615590649995              2.0912736443032465              0.9531556235750915
H              -0.6198735037088038              0.033874949736675264              -1.6325427774002137
H              -0.26786219089289903              0.28824010273818124              -2.1375832865947246
H              4.8543329256261005              2.1318287177071062              0.8745240763888555
H              4.5174210432537905              2.281710544031035              0.1805888821054055
H              4.125063692721944              4.715728460596242              2.9276724943019103
H              4.240959917959708              3.983483387113089              3.1494368602008755
H              2.7321771641150114              1.4548440284231074              3.5855411589779367
H              3.454409678568786              1.5757000386173396              3.5412762557615163
H              2.5833011394583556              4.5308202786948195              0.03343671073736787
H              2.663809332719966              4.6620693255349455              0.7668203564315219
H              2.2951557100887374              1.9596056982815535              0.32248508365558126
H              1.620694332315941              2.0161292705219522              0.5771192108810075
H              -0.7100544089405479              -0.1783812535543809              -2.0611292481451358
H              -0.25338045479285226              0.3924947577483258              -2.2411348273221474
H              4.643597468460974              2.101772613111375              1.1007532813337952
H              4.156439985120076              2.4755829326441092              0.6448985225135472
H              3.8273845826341244              4.656190221047234              2.810321488028898
H              3.9058759785012795              4.27899329791764              3.4375277489436393
H              2.8325510185978193              1.496470356390981              3.1606044581000132
H              3.3501855323484597              1.9613798309072688              3.4314043756504025
H              2.9146202992169776              4.335017460737995              -0.10356230363597316
H              2.5384247891236846              4.659987318760535              0.44377252632358344
H              2.223253678010437              2.1098859177717664              0.18521863663059948
H              1.8196607829772597              1.610600397848572              0.5655550139169632
H              -0.4578468635305352              -0.2624623438734518              -2.3195620566166184
H              0.060191815668755866              0.38124421943404463              -2.5285782130155834
H              4.941552286584324              2.386069696089002              1.1939693602492718
H              4.348878665641938              2.4620264214224665              0.6930483223469212
H              4.036987758345256              4.917599414086634              2.6425375183125084
H              3.8997831444398403              4.341923601585331              3.2040195596257623
H              2.9512555525385773              1.1889025842257277              3.166582135825923
H              3.111543749986601              1.9543517728341577              3.236188026201021
H              3.1495910149469926              4.44200436423189              0.11772849307973014
H              2.5131529416661              4.587399863817848              0.5296576257400598
H              2.2675138362214677              1.8995647488287057              0.37661823639638004
H              1.952355273430116              1.353396019765426              0.7800150522449348
H              -0.3240967003711296              -0.07401458435525904              -2.0168918420157613
H              0.18713072884070728              0.3022968286553475              -2.3518910275040548
H              4.75737024233899              2.108707689439481              0.7607027216845427
H              4.526530745466726              2.784248877196546              0.4177544512713513
H              4.260378207940255              4.619902167549293              2.7020550319307546
H              4.061980086553387              4.439123520367276              3.4354358518094035
H              2.9069019066044226              1.4846875320108472              3.320231467509373
H              3.2847406511659756              2.0954432137527967              2.9841118751246323
H              2.802944209500552              4.753692184259667              0.05960931134926572
H              2.667571250856757              4.257904864197169              0.6171011413495711
H              2.3410376128640715              1.6980950391930225              0.4342964728802659
H              1.911427792891966              1.9148292272209895              0.9663072512026977
H              -0.63135644788227              -0.08118268510471553              -1.866727062558293
H              -0.01393640120280332              -0.07446589206132563              -2.392733420309395
H              4.803528158971969              2.013665393447636              0.922480561841093
H              4.922834982803896              2.6497596390604286              0.49432046201865876
H              4.286457264040372              4.279385178446604              2.8545701996333146
H              4.134320448979582              4.427969309784687              3.5831689622324334
H              2.9629781349044255              1.439693508372563              3.1714593080697835
H              3.0654933010083125              2.1196978685847747              3.1027010217016575
H              2.9673349525540527              4.698023881973625              0.015623738002144179
H              2.4632426757598105              4.332730063318408              0.4919697485941476
H              2.248732394607972              1.8753501919635536              0.23448353010174722
H              2.2579376442130124              1.8239736464978218              1.0327077098662103
H              -0.5744906387123326              -0.052923949243672615              -1.6756319654053133
H              -0.16699152615734927              0.17242649825651774              -2.3245329676411655
H              4.759596546795523              2.024772087643964              0.8837506132705925
H              4.595502732854175              2.4954838512520396              0.4035317403781114
H              4.367041179248374              4.357924449365775              2.912892208737333
H              3.9491905130235856              4.055372311455057              3.4716465279728075
H              2.6255110958817114              1.3064086802005126              3.496146164152768
H              3.155063432378144              1.9172178308425092              3.334443860211977
H              2.7410576726233487              4.402272576647986              0.0014258429988393355
H              2.5064997160154037              4.086217601699403              0.5958780628755539
