72

H              2.2170042115314996              1.0427179832044233              0.8372619629948644
H              1.9350984842992625              1.6548316949282382              1.0572212983017673
H              -0.4737678933151893              -0.9960158884386275              -1.7970884114282624
H              -0.7073822944432513              -1.4639432280075566              -2.336645081735131
H              4.64528352534396              2.444821032738338              1.2380662802067866
H              5.098577885138506              2.664035998592473              0.7354757217553892
H              4.167046741142451              4.832679921202549              2.6983574134282677
H              4.5550990279617976              4.370955378457521              3.1626898292299113
H              2.9896865882542967              1.9662399161394704              3.6066286800687415
H              3.3514393141053493              1.993353650664829              2.9718271737656496
H              3.0234513669183096              4.514377106315438              0.5909431809686734
H              2.5464865299644592              3.9919497501555066              0.33709679351345556
H              2.1676698104207293              1.4643351312752662              0.9057242966781145
H              1.841807463730416              2.1499238756965005              0.909583233891273
H              -0.5720015030871528              -1.3871270656394021              -1.6618881795141478
H              -0.9084048313644207              -1.2796281352453907              -2.319053863113537
H              4.562618212825569              2.125077953079271              1.369615703002703
H              5.107298787274372              2.5445926059502737              0.9373887311155102
H              4.243713793522331              4.790745787730853              2.6860788659773496
H              4.488113859585512              4.234692118357235              3.1311000160396447
H              3.2573584457601474              1.7583002382417778              3.7678193945220384
H              3.128513088765772              1.6277752576304427              3.040245462264305
H              3.10836015622414              4.737362445839121              0.5514413419712985
H              3.084419452633552              4.0609015523519645              0.28032782542635576
H              2.1780369781150957              1.3618791476881442              0.6063064018670812
H              1.9630021215930764              2.0568948507254246              0.8686595996197479
H              -0.5231137322000766              -1.245791889643411              -1.6505298409879676
H              -1.1001310080480875              -1.4309949056442586              -2.1769629237483423
H              4.920356987513415              2.060222342413639              1.6862393742419108
H              5.069889682484973              2.661143696870936              1.2552393603602772
H              4.6054536618849715              4.756494806053519              2.6692183233100177
H              4.50267214303839              4.075765895748714              2.993360267275466
H              2.893814908944726              1.8499511531981008              3.8392099146478964
H              3.0709955491346763              1.836557465032213              3.0117684201665416
H              3.290576749889629              4.5226773173909045              0.41324887000059635
H              2.834209658574696              3.9363571145697507              0.3504065511486957
H              2.0878665540642842              1.3401444293912939              0.7383353206351526
H              1.9039186186223827              2.050141328681947              0.9547620453305985
H              -0.7002985439995868              -1.22680799049252              -1.531710445902624
H              -1.2637009599025602              -1.5206650072855175              -2.0319150225993914
H              4.924678429563403              2.464811598666051              1.54836338360904
H              5.115105454288088              2.8308133467661114              0.9471382338271994
H              4.7450738063898426              4.8195709435308025              2.6077101499491766
H              4.558992911897602              4.191915762685274              2.9114475988116086
H              2.921405613626313              1.7709056075460934              3.6159841055890807
H              2.7594789522905545              2.4955662686294486              3.3776945326290204
H              3.2321779190924778              4.822133524724726              0.4482830202806517
H              2.7496643858708234              4.178049466154259              0.41115773213411044
H              2.3378950912890435              1.0971236309128058              0.8012097590500835
H              1.6996657674033235              1.4241421267767054              0.735987410527118
H              -1.1152472684544346              -1.1545153209808237              -1.7964725062456939
H              -1.2524222447137896              -1.678051285850516              -2.198179058384957
H              5.22104298016746              2.3492965375676134              1.40242468595299
H              5.080930191434998              2.718754479792892              0.8375454281179762
H              4.4359960540119845              4.934627889206564              2.652126742167988
H              4.163988077793938              4.287332646116926              2.9343114084227
H              2.7479037878740193              1.9966695429253318              4.08895087996896
H              2.6462281587504086              2.3408374131566605              3.3341556696365755
H              2.9648318799612072              4.598121640145449              0.1914969571663307
H              2.681644590346573              3.9408274820309894              0.2789905355365658
H              2.4904053878144827              1.3225204751930215              0.9996948580363457
H              1.8833010759863207              1.2654293735401672              0.5991029764063155
H              -0.775411727396478              -1.0558479208937805              -2.131235618873321
H              -0.9997694559097158              -1.638461410052565              -2.4542827442129447
H              4.995281493037346              2.3283476227412              1.4538908845859133
H              5.482850788325957              2.8709096306019384              1.1066165445301341
H              4.3027752155615815              5.069841579489856              2.68733304958615
H              4.309707031649824              4.320402546042997              2.7827313954678026
H              2.6513201210603707              1.6131924022712256              3.6893017205540897
H              3.0745490569927387              2.257584854203228              3.505707281467764
H              2.9232503626063604              4.429606589553658              0.32407871024176405
H              2.479171597265852              3.9108391124035937              0.4638346630821035
