72

H              2.4864369663209307              1.459578386041128              0.6967218961253188
H              1.8274516823928262              1.6239470795804387              0.6531943469371659
H              0.0016969248876666295              -0.41031933832221634              -2.014772414948448
H              0.3746294792915333              0.261993145733955              -2.3648022178128403
H              4.947344072560782              2.2267213008878293              1.3491147077874477
H              4.804081736816759              2.6664507634195322              0.7820306282930074
H              4.45166845337517              4.575907976802878              2.9563155662166403
H              3.86828595013774              4.253947480922981              3.33280673465584
H              3.131880198113083              1.601174374611523              3.2931145156657173
H              3.202934152269142              2.2246000963670545              2.8836599938745096
H              3.115984739828896              4.582961716662816              0.09207858880792064
H              2.671956307399389              4.330364379940491              0.6841522082533419
H              2.2998779709000576              1.791695775965984              0.5188583034354824
H              2.1264215624942575              1.81851630904661              1.2459418241903837
H              -0.18365887394076288              -0.28385792188971476              -1.7317290829719285
H              0.1766614989017797              0.06411471298445333              -2.3571173348997783
H              5.4934640161807975              2.3178227155640716              1.0903034268684662
H              4.973613143441968              2.5149335993013002              0.6292911099742408
H              4.514335490800556              4.676537366264259              2.935629277222225
H              4.128398608682294              4.061785832004199              3.0753830046018233
H              3.0837590070834864              1.793644309585278              3.415967575629497
H              3.192078297312399              2.117845051218045              2.6977615635977608
H              3.2157638379095626              4.423779143110864              0.2173094893407342
H              2.6011426957177126              4.529625435191768              0.66713330992926
H              2.413669056036007              1.8133071206195606              0.49206692362804666
H              1.9123746047794108              2.034029995047331              0.93391956127839
H              -0.47933788781577585              -0.10789079488996238              -1.7437586644072218
H              -0.08574729002740417              0.19784944841244378              -2.2850103760319107
H              5.1038726330387165              2.2063234617127505              0.9801234816867977
H              4.851126075444315              2.3908386199036005              0.3308405248075938
H              4.12421610749018              4.496456708720935              2.996263143773516
H              4.095844960872084              3.8301129790795145              3.369623541007918
H              2.921038053422242              1.8083801884842823              3.358136583400734
H              3.530427254189909              1.8880786176535067              3.1026418141812675
H              2.8636027956250945              4.278694015713015              0.005840999978573883
H              2.535784355780355              4.3685477751025905              0.696261316001396
H              2.2951556783116436              1.8178782663317998              0.5187002122779254
H              1.7874923565295113              2.3127141029777256              0.8618629396660694
H              -0.10508388801771852              -0.14760265281410173              -1.6433972863787483
H              -0.04791632352079402              0.27240595989162947              -2.1996617502180236
H              4.932094086592355              2.2318500840069566              1.239014441459174
H              4.645476373456439              2.258227060844474              0.6341965875863526
H              4.23114421511596              4.509433694780402              3.1612245202238776
H              4.066641724628558              3.7909165573878694              2.9309404412091995
H              3.275251721364315              1.2301451080418968              3.5074699694077784
H              3.1769473822470347              1.9352636251937023              3.3527195162058767
H              2.769518834614588              4.335587076426462              0.13996272531548226
H              2.718948536895465              4.723665091081639              0.7533200296517727
H              2.1608581367401025              1.9242869810636194              0.4583626716306995
H              1.6579534902179542              1.826034107233152              0.9629242599496602
H              -0.07924527934899896              -0.16589966402206074              -1.801674031376537
H              0.03631051192686407              0.5209465069368627              -2.1840934299018473
H              5.172876842870248              2.310427904229277              1.1383251817940268
H              4.470172470820734              2.3774533139635463              0.9188391844977171
H              4.170176536840741              4.7985829456730675              3.0477945046790356
H              3.990868016569603              4.040231390208841              2.909740352560301
H              3.2276891053537313              1.4414281444837302              3.1345199635976817
H              3.475933506978738              2.184132825872718              3.175119191657034
H              3.036660229473442              4.244724230845805              0.16735508072459987
H              2.783565894379037              4.775709482350216              0.6391796599401818
H              2.2661637669916326              2.117374538749373              0.3519984688776053
H              1.6852915302365759              1.825141211188859              0.6644102598304096
H              -0.09903131700259417              -0.28877462938072357              -2.286384197229106
H              0.14192085468046106              0.37163163812871997              -2.238849317239679
H              5.212553007109479              2.5412172630336025              1.1220378195753669
H              4.662928614156584              2.3421515637398715              0.6436421726806355
H              4.017358156215534              4.887022793016057              2.860326907275453
H              4.038481129070459              4.205588496354682              3.1031059301934834
H              3.173640118544375              1.4249111936037393              3.2194756429132467
H              3.4672052212274247              2.1735629070904614              2.9726290997957507
H              3.2668218618734266              4.293283240852863              0.1859308310789661
H              2.734463362016777              4.629999516728658              0.6202162559405636
