72

H              1.9235283766687683              1.2592203250056633              -0.3108661451974657
H              1.3360516573932668              1.2396532925081072              0.06943896179661374
H              -1.5701926952866665              -0.7514582149329913              -2.3210927772488597
H              -1.1733493687343632              -0.7452589061544685              -1.6591383766372199
H              3.688132715717753              1.6980602710518227              0.7555517748018573
H              4.3418099321214525              2.083874669751113              0.9561931346400245
H              3.665406723357191              4.1824899957499335              3.160481343912345
H              3.9401630064469155              4.232283922011572              2.4843148104241304
H              1.6160220945929262              2.064456534464952              2.6788646710187187
H              1.7464931218953603              1.7118441698326126              3.304326180578011
H              1.9259076177106833              3.908147736764618              0.41171997705925906
H              1.338929015429756              4.0291786988947385              0.8026289048131243
H              1.8862621434975995              0.9670555718156049              -0.3033052873364038
H              1.3062205693780184              1.2079252631787925              0.036786662017108986
H              -1.909009352965955              -0.7112269407326657              -2.5406384843076864
H              -1.3441728258074985              -0.8679172265410695              -2.0670317047697537
H              4.0581003415139945              1.6365248823220275              1.0622579725802206
H              4.487603131095862              2.2682332449390366              0.9162063173518608
H              3.5834259467068676              4.718368510884038              2.9179059267405045
H              3.828099437363415              4.370163365086775              2.3570701170911965
H              1.5938497085204308              2.013975910191093              2.36857659973017
H              1.888662103257591              1.861219387385859              3.116470169767175
H              2.03379529645998              3.7810848101545194              0.6170766604775929
H              1.4382581285998375              4.270046997050649              0.782858886458191
H              1.822597713004969              1.2659402733879943              -0.5084125762531811
H              1.1365760840571186              1.2776029132591713              -0.2499904179246937
H              -1.8584608092472787              -0.5915989854173025              -2.6099885458415026
H              -1.0978219110010172              -0.6749068379215626              -2.346983697596943
H              3.8669623133326594              1.7236509764251273              0.6778485752917409
H              4.362590516575144              2.3931454127118412              0.7722370442856681
H              3.553255617238692              4.386724951268661              3.104869711307859
H              3.846031871904088              4.578857934830493              2.410867354894149
H              1.4477508425797567              2.058186134681272              2.308539434132782
H              2.099514104657877              2.101407567356504              2.7855117069636246
H              1.7404460588401536              3.7013002818730514              0.3020356019632326
H              1.5273658031080495              4.1148104210428205              0.8650255738342614
H              1.7516634572186034              1.302452954050172              -0.611774879790577
H              1.364488640704488              1.2592773135747208              0.06336202001012978
H              -1.4764437019031207              -0.3707360307490105              -2.3038600966714555
H              -0.7303007851195471              -0.7840065940904657              -2.1898625106870453
H              3.9406109843046133              1.8687879043171178              0.6527485003567134
H              4.2337862085055695              2.432329966312485              0.9730587862226476
H              4.063369074690219              4.037474408052969              3.1004306048444357
H              4.046150423342534              4.592601821551091              2.5696232161847083
H              1.700301504138311              2.1401792643130015              2.2865234213714363
H              2.1311956682400246              1.937059158075457              2.8293385369540833
H              1.681748674690077              3.7153244150067284              0.32686755701153475
H              1.7635342916494032              4.119674863890914              0.9429377524145639
H              1.586312162163929              1.310199148074316              -0.6090255788911874
H              1.57072343088858              1.2970777567457              0.12408775720406863
H              -1.349783547559795              -0.4444120218410837              -2.158732579926958
H              -0.835776077180217              -0.7290219011783798              -1.8950224437845469
H              4.606664883122248              1.766900777387785              0.46017704602398296
H              4.358755498226558              2.4236793396455503              0.8067079924674126
H              4.176716774200388              4.183823639603715              3.2213146850235868
H              3.8303313990316634              4.18483059777199              2.5123319512000872
H              1.8255553363502472              2.377571887588164              2.613785452770531
H              1.6729528658741653              1.7324827646901289              2.8477187759304865
H              1.9688670264136607              3.730907988587227              0.15584434316980886
H              1.6585441777921033              3.918298874879846              0.8594392132857996
H              1.7270156356658997              1.524950287822983              -0.3885446262339609
H              1.5079655082814067              1.0004210906321265              0.06921163437158158
H              -1.5134420468867642              -0.5744281591038003              -2.375545125182848
H              -1.1237209436945372              -0.8228131849418447              -1.8198053650127777
H              4.094498240535177              1.6563237044666792              0.5498857933532628
H              4.699327353775827              2.1420535476119595              0.6560436054818128
H              3.7796443228476546              4.016401798415026              3.2820919813904363
H              4.023338235331924              4.244799731881862              2.627736732294302
H              1.9519083754485544              2.138497485558194              2.4485121478482306
H              1.634110299023932              1.8871285463781733              3.166262668869523
H              1.951617971917399              3.8533847770204797              0.23518496995123397
H              1.4185237392304852              4.127441448739037              0.7150933977450363
