72

H              0.7138050746258571              0.7820715144164279              -0.322502286347504
H              1.4054090761524605              1.018745277212235              -0.4759206139755318
H              -0.9126583716494038              -2.5245346457438296              -2.053688039850925
H              -1.7145813169223287              -2.799086465333377              -2.1530270550174397
H              3.547001419597643              1.0966059577231941              1.465399880028345
H              4.174366439989585              1.339161916523703              1.2757250653270122
H              3.666135903835381              3.7275865914651396              3.1685810735040993
H              4.312470368600027              4.0031017970064084              2.8735920817830287
H              1.753168666549052              2.2454615415174413              2.4081287303150947
H              1.1362920617632815              2.14358011621367              2.6096482055149752
H              2.727516958400943              3.5278933289864987              0.10532319555422548
H              2.059222593766789              3.751596746500431              0.3000007332980186
H              0.7563676633747607              0.9857204346651253              -0.3983332904285568
H              1.4127188338175853              0.7280329955162392              -0.44686553824823577
H              -1.3875201044897374              -2.591328887921194              -2.257450153346311
H              -1.8994721498693552              -3.0126483215914304              -2.237653398760673
H              3.892619842394035              0.9674326079807982              1.5329493767233622
H              4.559326735401016              1.2868949793450088              1.3428372153828898
H              3.6514718896198395              3.987876852758467              3.191458215714812
H              4.316703656493801              4.154483109217247              3.0002268675224983
H              1.5785289721147406              1.8965526431824895              2.400818817299405
H              1.2463912854642052              2.490438045173472              2.4572977414212356
H              2.655458541189673              3.9648612728104418              0.04825476148929597
H              1.9721956543565564              3.7286660523882196              0.339096651695986
H              1.4236870456510833              0.6111462695491031              -0.8476571241445358
H              1.2481598833245293              1.0967508971544426              -0.255314098696828
H              -1.284930263935241              -2.3768335234240294              -2.358072669647202
H              -1.7906314946722115              -2.7620154991386006              -2.0730638236319026
H              4.040504981799963              0.9298892435836392              1.320640608042191
H              4.509809695795519              1.3263999524210999              0.9545537225989542
H              3.7051603645591586              3.6992254535467772              3.269729550984551
H              4.212054246682427              4.282159037472558              3.0015944868417117
H              1.6017290544097242              2.1532420524892726              2.612731253742714
H              1.1075021449188225              2.6105735425588477              2.3029884516340506
H              2.4279445301169273              4.307165948276349              0.03494368076064703
H              2.0283259425047158              3.69597816825934              0.1779607429656486
H              1.7627124313906217              0.7844658601667357              -0.7284989723326253
H              1.4247974225431204              0.9433304972487281              -0.07650748443149845
H              -0.9852539604327087              -2.223285981614435              -1.937099344891143
H              -1.753623799920344              -2.5581128687684895              -2.105981648616031
H              3.9244032795394204              1.1905440018274047              1.5167054372816
H              4.455239157736957              1.382767885006979              0.9143977018644006
H              4.063445911221483              3.635786977596012              3.2084377285721914
H              4.501070192454921              4.179464613072999              2.981212343794103
H              1.549627724108372              2.2018974516400998              2.8930989510713747
H              1.2983019146415966              2.4302390199615953              2.1911786700535525
H              2.8148319758729103              3.8641693435042828              0.22264939573138953
H              2.141718791042053              3.8313161756031064              0.01166643517295272
H              1.151394278937879              0.6771912823415953              -0.7602395377386743
H              1.4626553944514173              0.861543727355054              -0.11418923268567187
H              -0.9907580473759283              -2.5268558694220298              -1.9777206264493894
H              -1.679194741474802              -2.3826606035914994              -2.125566858293881
H              4.224681746068168              1.0562880053160861              1.4256690103552976
H              4.486520106555601              1.7209098430590695              1.2269593352915695
H              3.884296801574859              3.589712520438615              3.320711091648258
H              4.167563817891094              4.060370047283996              2.8743969933094577
H              1.3146189403037074              2.143566837812382              2.8413139963152676
H              1.2325130756345768              2.3044509085175893              2.1016449360293756
H              2.94265002097565              3.823009970727444              -0.2403387408809146
H              2.4342188624548746              3.5721586424634566              0.1709651770476812
H              0.9573844542776896              0.5801106750584416              -0.5518724415142605
H              1.5802876425781232              1.0181631133288735              -0.44027170156381235
H              -0.854434690531095              -2.596616022849953              -2.2845805969343544
H              -1.6439356356929602              -2.6116827665959135              -2.19629737477501
H              3.7556983538323117              1.3409203496722562              1.5550364425372727
H              4.3753231034556865              1.2079434562238203              1.0865827234635839
H              3.6724104493629666              3.485322811140948              3.0771147817270674
H              4.093340114355389              4.091080095476561              3.0111989811809408
H              1.8684576566654627              2.1806296534921668              2.616502943036864
H              1.361858619405084              2.422048595046267              1.9605642795949016
H              2.8106164851731235              3.5829383920690163              -0.16978067185193943
H              2.3746114828872646              3.679151101524701              0.38090109989400617
