72

H              1.3611267472774005              0.623022684587919              -0.5776513317419564
H              1.3746458626805873              0.8232739046151              0.1289218250933871
H              -1.1790817217344647              -2.6435767264103327              -2.081883393749861
H              -1.9120328804427065              -2.9519547777161885              -2.138368856528658
H              4.041850346464134              1.169313781212103              1.5314638426739993
H              4.746944897554048              1.2754356074197253              1.4300608938506616
H              3.7756437988850853              3.5620250439493137              3.2901333927124177
H              4.204945400621574              4.067297695006006              3.020303883576308
H              1.3293752978277789              1.843492806488704              2.282043445427217
H              1.0101129340584705              2.5063575349311495              2.222481262142305
H              2.6924822302074727              4.0085678343750155              -0.024834455494836934
H              2.182139464140506              3.5948270687109116              0.3187759551658625
H              1.1281119071887948              0.7143472880875932              -0.6312738022707135
H              1.3447225853156382              0.8104395128267758              0.08674410988032716
H              -1.31875941228075              -2.343333467605034              -2.2071235493705053
H              -1.6479788038909833              -2.876716569124413              -2.2921470499790906
H              3.7938089318236523              1.2426001322000289              1.4352063713425132
H              4.407510082699032              1.2826828421684515              1.122013930746895
H              3.7110181665298687              3.610084049264839              3.2027447452269766
H              4.042830522336824              4.227976140751643              2.972106755632647
H              1.6263527645672968              2.179033664249161              2.5280895728182315
H              1.0568804045510896              2.4557206564745226              2.4523256964545124
H              2.752924974055163              3.5319645345139126              -0.10616320842413034
H              1.9600101083677874              3.58703299309412              0.0786298888489855
H              0.8187770652048582              0.38282376417123937              -0.42009808411482535
H              1.248204954901316              0.9536737947469536              -0.028638855961703746
H              -1.1499147904475384              -2.497953998574039              -2.2781124087134836
H              -1.7255058466662017              -2.8389028311899858              -2.4718027233687043
H              4.032985714273413              1.3750209264010864              1.6096910081643605
H              4.533822604145328              1.5270184113094674              1.1061502889378816
H              3.6545409835228986              3.892558828114347              3.217149105178902
H              4.25888903383935              4.127287815719353              2.823554837737342
H              1.7975002804159907              2.2560652595914408              2.244767967016206
H              1.142889787494606              2.3971501858936355              2.6131269436334805
H              2.965364600205351              3.5446119434951333              -0.064049233063159
H              2.268094328216937              3.7478158656461797              0.19655696608232737
H              0.7188650075303046              0.564528832056884              -0.6191638556497174
H              0.9373194226597915              1.1447269219580054              -0.11040421544072263
H              -0.8152627507221567              -2.527944359543048              -2.375333914656871
H              -1.5658157160420618              -2.815344471968034              -2.415836767823196
H              4.180410909224297              1.1448713305239295              1.5996922761925316
H              4.50409287460806              1.5778279025956639              1.0276728877557544
H              3.7997883025886683              3.5301021653972944              3.3737481852246503
H              3.939895709519714              4.0842070631753185              2.9057773941868326
H              1.5722755254555842              2.334717828322726              2.6751957305469762
H              1.1192779255740561              2.5122901206434465              2.117574278178412
H              2.7286768835558317              3.8050272486209686              -0.18522501577925535
H              2.5073292690614406              3.4955215377587114              0.42229741080404837
H              1.113194025172895              0.6455663412913103              -0.4670539802480673
H              1.2154271133018681              1.280127251559449              -0.1252817183977212
H              -0.6679283010227199              -2.588116541678041              -2.025311802156102
H              -1.3806369773492881              -2.630244545219902              -2.1226283693629133
H              3.838988654188694              1.408234163235067              1.6030664084416177
H              4.1875804695107535              1.3116912206377676              0.9268565119259085
H              4.143436286722257              3.679247790860141              3.3236232689920953
H              4.455835231674029              3.782459431234877              2.7482486590055695
H              1.909678104826086              2.3534110767373093              2.4738049846186785
H              1.1907362989869912              2.3800189530611204              2.156027755756209
H              2.9716958653635324              3.8735929118616146              0.3585013780857499
H              2.2680513662422954              3.693424731523452              0.4842193099122867
H              1.0747922813123623              0.8305665800734946              -0.5444569291253252
H              1.1134377810786635              1.240940523341943              0.1402019573495085
H              -1.0564034042158832              -2.6310424241076946              -1.6587921466949136
H              -1.7112659305288171              -2.6492403009468974              -2.0972413454875225
H              3.722375128306184              1.1710098320096105              1.4710005185674588
H              4.366851672969599              1.4562704463674503              1.2799571198620796
H              4.138043810918046              3.6589853921412696              3.507439812411291
H              4.529688880665199              3.7449518303560314              2.8671565848308247
H              1.394607962724715              1.8930440690505403              2.6198300223742907
H              0.7678397601925129              2.300130028030498              2.3365973798616615
H              2.9359132761211364              3.817799086652444              0.25405319254672953
H              2.2476486625418537              3.591556333108313              0.28744611132933773
