72

H              1.1252271767289574              0.7306169161372769              -0.43263913453548547
H              0.9594385002523226              1.039806313479154              0.25181772657783696
H              -1.7616974692841618              -1.4667596174058959              -2.4813644679968707
H              -1.649625565817743              -1.5627028239637644              -1.8164919560488102
H              4.027966959592935              1.4367668835478924              0.9978994805580738
H              4.463565588195709              1.9522221972796476              0.6829413481954132
H              3.746744118190601              4.772954443772419              2.678002643947151
H              3.865945708437764              3.9552771613892825              2.6511544475278632
H              1.1873785167908686              2.350893424115313              2.6501860511248605
H              1.647113193003539              1.8530341909481298              2.8969162234344568
H              2.212088963524044              3.9937174381431766              0.6699459892870736
H              1.5333745633879137              4.234679931241145              0.511486501554578
H              0.9111698136695692              0.9656378184713675              -0.35089026511332577
H              1.0390119647592482              0.7514004008738842              0.2820863954280834
H              -1.8350406741390763              -1.2504016063286068              -2.5588831910579635
H              -1.7540940688510624              -1.6530510031240624              -1.9214662792728754
H              3.440931380665314              1.5371335418233754              0.8974706333934553
H              3.9493145520384565              1.9010974951355806              1.1691952483076744
H              3.9438251430274707              4.625109887239597              2.92904651533231
H              3.655849915566459              4.008910514903258              2.5807026831108866
H              1.1906343523708336              2.446813294363967              2.6933844005857726
H              1.763919063592211              1.9541878067661285              2.4464400144946827
H              1.915665044000536              3.847982613764167              0.5785093043050681
H              1.4016117102732961              4.152449099279705              0.9801483618441772
H              1.0855745989516103              0.8907660851327165              -0.5160241183661287
H              1.0724419757882582              0.9234790011870104              0.2110854628050962
H              -1.7159130839854957              -1.100684310598997              -2.3917018443709885
H              -1.5558527111441092              -1.6322163405020982              -1.8715236779325763
H              3.797814592001767              1.5273592387066097              1.0839759051842288
H              4.129866155949338              2.1920328929672217              1.1922455064473512
H              4.306679396307674              4.742547650376299              2.6094357279058262
H              3.808168283689478              4.15970782166745              2.6334669857148754
H              1.2803771789366742              2.3097383412355543              2.750822185828713
H              1.5501818266800296              1.8874171361701833              2.2819133844546284
H              1.957658706076209              3.8710111780338075              0.6236349525341677
H              1.4660822068565693              4.21674688535258              1.0886664836456414
H              0.9414302185195879              0.7287830995464357              -0.5900840395165199
H              1.1236902378565743              1.1336028027803844              0.049439635359916655
H              -1.713525371313251              -0.9894652122798533              -2.4501898809318425
H              -1.5581974523112307              -1.375426847341284              -1.9068611694544115
H              4.026091284261474              1.540381450407527              0.6401042025778759
H              4.1672656273685496              2.2062076568599185              0.989325440645449
H              4.289182074886559              4.530813610447636              2.7496880504710193
H              3.6788294313388255              4.131169572727688              2.837843482129805
H              1.3973454951507203              2.459976487472565              2.758898247714001
H              1.6047236830512317              1.864193784983167              2.3295652423664293
H              1.9802823892601134              3.806966707877046              0.22061612139149994
H              1.6830629636266796              4.065822846040153              0.9000485973043308
H              0.8062830892407794              0.9821120181215566              -0.5163905049418464
H              1.0634429465095276              1.2680145514598897              0.15992848689627784
H              -1.3750312171205439              -1.2496840018091178              -2.4601652400759346
H              -1.278342176421367              -1.2148406564469072              -1.5960765898436668
H              3.875219514050809              1.6236196404629477              0.5695484172334275
H              4.3467610558592575              2.085742343118221              0.9568104961342576
H              4.3477807167951              4.290377604637249              3.0051328547640517
H              3.756164632247979              3.8582257124075614              2.7187688904906153
H              1.1786487579106377              2.382442425637398              2.5477163871839963
H              1.8580457494424498              2.0160925986867664              2.5333945140587013
H              2.0290045806076735              4.018116325187469              0.162648218346267
H              1.7301370033116057              4.040456336821508              0.8737838238398329
H              1.2409069027692337              0.7418545188735178              -0.3232779277853943
H              1.0567856909042              1.4652561163601507              -0.14589640300355397
H              -1.3339660833186022              -1.2364769786741032              -2.3273366903829924
H              -1.3571752101100383              -1.4632273121826291              -1.500426244369016
H              3.9256606104299094              1.505647929216257              0.808264493382242
H              4.274396359862863              2.0530990938678952              1.1479160056380853
H              4.265010841466443              4.311199243693814              2.6923058366922143
H              3.696997868121461              3.9265240769218037              2.9742530790438257
H              1.2098356281956355              2.4317291980069946              2.697276351844553
H              1.6169441819222699              1.897044257091392              2.930090759345424
H              2.2762684339726693              3.8405787840531085              0.38624418048030473
H              1.5462207234167837              3.7356848879179014              0.5922302137949663
