72

H              1.0543257396900583              0.6652548993758499              -0.4829941753102373
H              0.8351245882831807              1.0653944143372909              0.09855434198322756
H              -1.6364006902320536              -1.3293315604232558              -2.561641267885768
H              -1.3005932642585092              -1.5305157195488326              -1.9835404647150792
H              4.146059233286974              1.4387348643146685              0.8301559188905029
H              4.564234615504297              2.1065848717747797              0.9888864874030141
H              4.0167490500715965              4.6679453738547085              2.8508168327733214
H              3.549330535832801              4.011860677124497              2.799512162431719
H              0.9792527697053017              2.4309511588897434              2.829246692506238
H              1.4853983708933722              1.8976396827916262              2.8380301152459984
H              2.151804031598189              3.9758562432535505              0.40294479283560863
H              1.4544306862800027              4.00372310479235              0.6692791261346291
H              1.0877105640726887              0.9365270615190495              -0.45354635144194855
H              1.0902947116790156              0.8918663789967828              0.25635055445276156
H              -1.6874101129275039              -1.0452038198857152              -2.3917849819903836
H              -1.3881897024989978              -1.599712736539817              -1.914337960965664
H              3.6297489603284503              1.5872389839733263              1.0548004065811425
H              4.0583180231686296              2.1480504862202507              0.8814131278696948
H              4.1891868367715865              4.619200214727552              2.89379343358256
H              3.9093553712543763              4.055628355618562              2.4647826435898494
H              1.441430788888279              2.4972856250968083              2.8720428925367076
H              1.6065298329960536              1.7672324388528797              2.676518493971466
H              1.8425514676010815              3.773001576509896              0.6551648990291125
H              1.4964257629522977              4.242567666526623              1.049910163220014
H              1.2831605477117185              1.1232358123762716              -0.3898253135847338
H              0.8635406153445333              0.992027881634706              0.10853703966056975
H              -1.734065155638908              -0.9637644150354217              -2.19473604018056
H              -1.7210736953486987              -1.514123895725055              -1.709881467709439
H              3.7063565242001126              1.6599960977935122              0.7853138701373267
H              3.9662023558379897              2.2957313426124863              1.1724969655818769
H              4.2054286297063825              4.571982961327181              2.7090171253609743
H              3.904793191122386              3.8814907100187024              2.6024898647440087
H              1.4115425733790696              2.378407818447742              2.7153453139937573
H              1.4968801760921864              1.7874636549927128              2.4066304187095433
H              2.085563679167976              3.996044260384377              0.8089263617788028
H              1.4115131266813283              4.213543122173902              1.021622192761292
H              1.176240865185713              0.9754085856310472              -0.5923002014232254
H              1.1373051442850706              1.10398792429629              0.16116518494410298
H              -1.7806959485541634              -1.0643585311924164              -2.466088053440224
H              -1.6431372474720654              -1.3416595369028084              -1.800710048380584
H              3.860463356285857              1.6384875709829319              0.8142511003074648
H              4.364092811636522              2.033128300362335              1.3338191414647684
H              4.149155113988916              4.406458432538104              3.0119894114703203
H              3.6708678817168536              3.9823506423009114              2.628801243542048
H              1.1876053745747965              2.3832475476758286              2.481736348943763
H              1.7644921773804247              1.9910967269013966              2.2205416449268185
H              1.900821448627699              3.8483666739000735              0.36342305402829966
H              1.544514601582462              3.951634154476319              1.0200021810355169
H              0.8591895988798749              0.9383935406918593              -0.23919261193201402
H              1.2201429520445537              1.5581382804838462              -0.10186972241608673
H              -1.4801490961096457              -1.2161481506947152              -2.444192602941014
H              -1.3088690216934589              -0.9512418151754306              -1.6630409062762102
H              3.8332721681821043              1.488677462998498              0.6885185537763799
H              4.304560678216164              2.154698816960226              0.8280529516063474
H              4.197690517684651              4.551250080990671              2.96824785568415
H              3.7436057051953604              4.016776301276434              2.577163851290603
H              1.2809720334376942              2.4669038072898917              2.647564209043022
H              1.7616428560436053              1.839267017317013              2.5553859194958735
H              1.7768309204209087              3.7172679535949666              0.07943154705454325
H              1.6497962726725723              3.98400309826483              0.7799380481549876
H              1.2854807846595615              0.7865004932845727              -0.4389126325784028
H              0.9309189441707932              1.1713322657241714              0.1508459947578769
H              -1.4926759795747992              -1.1309647189099554              -2.5380280066036094
H              -1.474192773469206              -1.3809839195112537              -1.7381860323835072
H              3.985511569126335              1.499250866730446              0.685354299743711
H              4.378439493194512              2.129316605126398              0.9413057069494332
H              4.166859943393924              4.61111681980558              2.8247363574886153
H              3.6303838271119155              4.074522334822843              2.8519252135188156
H              1.434765501758756              2.1353106822563417              2.3951388729715655
H              1.6629505106945055              2.2210043871578535              3.0603321258385017
H              2.2668963423852966              3.796506862571715              0.332136608264562
H              1.5624737529330348              4.0133714486370105              0.4808638000683604
