72

H              0.7232324885724669              0.9439782922451447              -0.4976318752700083
H              1.4335134364253161              0.9776432822672382              -0.42065468002839
H              -1.3924585156807787              -2.1330079490154907              -2.4638923318567367
H              -1.8235847158515577              -2.3892242122918947              -1.8412529123000323
H              3.5947571594379277              1.0398158625355298              1.202224308619713
H              4.207173688990072              1.3392471592631123              1.3406222341023775
H              3.6176468141981544              4.038554124245862              2.495970728945187
H              3.7184026307402034              3.996340188520721              3.2249226871684513
H              1.3273065779267843              1.9668394308663921              2.6478613542605793
H              1.945379757757649              2.282949313278083              2.4105004824247063
H              2.5421184048395              4.037894398249853              0.2625867698460113
H              1.8303543093361774              3.897094004908124              0.4971988588285001
H              0.8069993329174713              0.8968173427748888              -0.620383488804963
H              1.1580095715070418              1.2772498386737379              -0.15179485343783208
H              -1.575132282478892              -1.945008410591848              -2.3548493805106747
H              -1.7414645421766966              -2.370859004515873              -1.891142200535358
H              3.4757603060109905              1.0319562241859672              1.2753314415717718
H              4.061300146468017              1.3857552600783485              0.9374378713985784
H              3.6365954600898944              4.437744323512413              2.4389502545900505
H              4.0823175546637245              4.158320528712891              2.9428368982224757
H              1.8160827284387366              1.9769411201670486              2.935431778446077
H              1.7110698093439258              2.2161624695860467              2.2090916663633804
H              2.360608019115303              4.1290696460007545              0.5123289890308693
H              1.6101190057179149              4.170794095352956              0.4752381488701173
H              0.8458727372173412              1.2554212647009473              -0.4819882663480446
H              1.319619182099136              0.638332733460008              -0.487040016197333
H              -1.632182304228909              -1.8022545729506223              -2.317708315168826
H              -2.071805259308623              -2.2476367287005794              -1.9918612135035447
H              3.6363872781617324              0.9834919817648364              1.01849400603172
H              4.049353688015077              1.5883484233431984              1.0063209847741255
H              3.8036440819577604              4.33096055707771              2.5245504596555715
H              4.130539639723013              4.213308306172703              3.1667989651929713
H              1.5488575996147702              1.937397774183754              2.9270898420196985
H              1.7666925185966278              2.2600533746121094              2.222887101980797
H              2.46153164567421              4.097379236120201              0.29546014786189795
H              1.7937198726303243              4.317037123220622              0.544847877609108
H              0.7201214659874302              0.8977514356966502              -0.07751479784069354
H              1.2610362452082426              0.5841397000525497              -0.47006998098809316
H              -1.2426261832943657              -1.9321560101714756              -2.398339031029691
H              -1.7404607787202673              -1.996328867052803              -1.7525860703384617
H              4.244224464040614              0.8885356537815714              0.9643734817027354
H              4.242556603488847              1.6781011435444724              1.1617587840187076
H              3.9354831848730742              3.936978598778095              2.563571413527012
H              3.936482238726072              4.24363481869164              3.2122009660060735
H              1.3552907066097832              1.9459061793002497              2.955301368612552
H              1.4098484931476774              2.23266849676063              2.2293687197518537
H              2.375079525987347              4.425152197699562              0.006870722230350349
H              2.013709348534512              4.039796322836656              0.5268700065376793
H              0.655859128836994              0.6958812230067812              -0.03958104335456999
H              1.365859913103588              1.0197903225161231              -0.16257227002367028
H              -1.0402691419872476              -1.8158876536753963              -2.23675218654245
H              -1.5911294887843062              -1.8928428051147643              -1.6793888494048497
H              3.7357584028670736              1.135168867748473              1.1250158396978676
H              4.086807875843242              1.716329632948021              0.8757435971045192
H              4.038148011695874              3.8672317634238778              2.5086634550678975
H              4.041673633346985              4.1510211702644355              3.0943730613967695
H              1.5963471665003304              2.2895523329250658              2.9622456140107265
H              1.9246478670408043              1.9381073565031506              2.361533458745477
H              2.638672633316408              3.9492803007235087              0.03498781319588051
H              2.019239776778164              3.8573731140045457              0.3591561649069495
H              0.8218773473438605              0.704276767184025              -0.2025875518290842
H              1.2620566119659915              1.2335409984560546              -0.4749361401659723
H              -1.1860933895265575              -2.197023490560205              -2.206779586444701
H              -1.7680399877616755              -1.8977733353378294              -1.6906268467432735
H              3.5642907908596477              1.2217373883798794              0.9842678343640285
H              4.181032693671937              1.7523534869942858              1.048998484606071
H              3.648703559257862              3.9543845987372404              2.4660837028518054
H              4.072705686805751              3.9366634872362107              3.052597017373918
H              1.6023762764341827              2.0569156952818513              2.8818333343371685
H              1.9007269747668967              2.1472429081961226              2.2393452225802752
H              2.835140428972431              4.072398993500212              0.2184079636537012
H              2.0962294349557538              3.999483164717215              0.3542015189008156
