72

H              2.2035883673386256              1.4389783409365602              0.9483666678086498
H              1.6750532632619288              1.9066831494493774              0.8346476119567463
H              0.3851680524806421              -0.4761709013679149              -1.5700125579693742
H              0.14400415825240406              0.12180047386028056              -1.9209389494927789
H              5.341634646719799              2.319062585457464              1.394767700931113
H              5.039465829869582              1.9619683428697023              0.8363781388848642
H              4.133786979150574              4.517006983027742              3.3112447518941797
H              4.04487903531881              4.0805892161957455              2.756476278435036
H              3.2295829516476537              1.3300368507182803              3.321580758547021
H              3.160196354827549              2.030809279723107              3.253372662379106
H              3.031281629162376              4.112468944433649              0.43164286588469775
H              2.794493941796922              4.813182047191879              0.6604964822855699
H              2.1622395474397367              1.6640132186649401              0.6154012518950075
H              1.562246419027169              1.9263945940424698              0.9847509129719947
H              0.33868892854000643              -0.5639462537060258              -1.8248937339657978
H              0.03219713064376841              0.12300518945807577              -2.103277695063568
H              5.636197388071839              2.4495983186329924              1.3480573867884904
H              5.1250240616328995              1.9865847335745694              1.273291756271736
H              3.900697596254783              4.91939245634275              3.0737376416715403
H              4.2268083286649505              4.341894786375968              2.6420969199267996
H              3.301601474842302              1.376030121523303              3.033477776310207
H              3.3649798791050625              2.170929923340398              3.142706252648844
H              3.075749319466615              4.32053427332595              0.7265121958514364
H              2.8516378482641263              4.969272452707133              0.3310075381782663
H              2.356179322134587              1.6731004421003937              0.40735451921041843
H              1.689173762917049              1.6092136654461824              0.6785710742139401
H              0.3930309001552797              -0.47858962877528743              -2.3060950437936976
H              0.2519599305527117              0.17266232300925616              -2.193250073878053
H              5.484621754339139              2.535072664440908              1.210925830332057
H              4.920602538081488              2.199220779519078              1.07508488435817
H              3.8314268051606524              5.050717140915999              2.9190802740074697
H              4.065536053535168              4.29833570973338              2.827098720311046
H              3.2730566171348814              1.2851261116360382              2.969284910998965
H              3.3925250088511714              1.976573562725283              3.2051937936964214
H              3.0899818388226223              4.003262329402022              0.5589477287997228
H              2.7726526753913947              4.732284593421366              0.4698202646261168
H              2.2479170894000684              1.5487169115406225              0.9507549407737657
H              1.6013302143532528              1.7345404140654885              0.529021808189123
H              0.566731343010935              -0.5025054763389791              -2.029461916234756
H              0.6884156534293585              0.12429205975128095              -2.2518571632811493
H              5.566902815106541              2.4278494191849265              1.469260279437619
H              5.204036485445879              2.407002254512325              0.8918444086792601
H              4.373285635805207              4.744159863500536              3.0460286874281914
H              4.011873747178119              4.188819743132513              2.652446955343685
H              3.3230028857158502              1.1549080721862819              3.364715850027294
H              3.3421929819145433              1.8967255911188439              3.1652194607473327
H              3.090348609584198              4.094186977223165              0.6537903623419427
H              2.7911878897619924              4.745403838872737              0.8192106209398967
H              2.2148426825930785              1.4137858159791188              0.7182065232328347
H              1.759486602854187              1.6954453754109389              1.187613003940158
H              0.37386674719190016              -0.4477659680382074              -1.6601140246947386
H              0.5924523132435301              0.12907172895125435              -2.129429003834615
H              5.599691303212478              2.4624718042531453              1.3801312917653592
H              4.967399041132442              2.384712167883588              1.0636039023369006
H              4.395943632768142              4.5103355333857325              3.161723795471031
H              4.164048732058467              3.889707414691149              2.737930461733666
H              3.421161163726034              1.8281965537543394              3.531855449201414
H              3.3478499348085653              1.9783444497746359              2.7327047440742365
H              3.2924082249716875              4.031120359766302              0.35014566483608756
H              2.826266537878511              4.474886085886535              0.7582684910088778
H              2.1220845926110403              1.4863513991000459              0.9423948233358506
H              1.7503116622253403              2.1070006639609216              0.899225788130198
H              0.05707545846798064              -0.4572966657789649              -1.6726683829685751
H              0.293588909311774              0.0717702614536148              -2.115880906790528
H              5.417553573361586              2.5790859580467953              1.356371641635467
H              5.218890787529701              2.0157401470964165              0.8742069327375421
H              4.116274743609544              4.578582568082538              3.0719991546264054
H              4.297188124404551              3.8891289483332714              2.857283328457804
H              3.1833695725187185              1.2427529953461915              3.3434008406431603
H              3.4332360329599383              1.9940622350406025              3.0680100928229694
H              3.217518351288771              4.0249023897373055              0.37756768842796756
H              2.869668511204642              4.542031048228624              0.8161120531129266
