72

H              2.074082228618462              2.258002594465452              0.31075895011139276
H              1.9009845218996246              2.100324554077135              0.9555080873962316
H              -0.681551790383397              -0.15462374645423183              -1.7722049598092469
H              -0.24985005858603665              0.2618758011563071              -2.08762525087919
H              5.100123242691744              2.2549258502416123              0.7943844565628698
H              4.651843943904601              2.2263519876042013              0.30649424731918506
H              4.000064155710954              4.719093219798599              2.954197174632784
H              4.244735024082562              4.11876812284467              3.1924098063691546
H              2.718052032190424              1.8016094837062728              3.50448046081016
H              3.419620496672929              1.7250137052945844              3.300320779442743
H              2.9367124539909053              4.3698100450742245              0.025174782746029384
H              2.6260807344994297              4.593847963057443              0.6133761185512692
H              2.3658703834316652              1.904451590320971              0.3262119033768341
H              1.6830327883577019              2.0255730552070643              0.3523674608469248
H              -0.7562230530494269              -0.28674388497587683              -2.1215373964057442
H              -0.2696425765209393              0.3119839353965561              -2.3520541215514794
H              4.56018096749591              2.0905401835642943              1.212960420930502
H              4.312517005562492              2.430284097946719              0.5618305567297639
H              3.8016818877336185              4.681280741099645              2.884814056666248
H              3.9465938632343267              4.308650491536565              3.437981631308164
H              2.758280756947058              1.6319556337896026              3.275452465446945
H              3.410973592693857              1.83016585797754              3.4182428528580404
H              2.8133204046359883              4.406819518729501              -0.10610866310929477
H              2.4567075290217972              4.628436211335254              0.5326256928322723
H              2.271373925659877              2.003208246094299              0.14936949575174413
H              1.9559713026382124              1.6772049351046059              0.7242019833304757
H              -0.26259171449304297              -0.266370411975724              -2.0631190358142084
H              -0.014133325440205508              0.32993867076404454              -2.5933574054433994
H              4.939432575502289              2.325977226251406              1.1468410983487343
H              4.33542783323363              2.49900250784574              0.8666640410346454
H              4.1986223058172385              4.969624121924796              2.762676418741521
H              3.9567034937868315              4.2939560019503356              2.948240877800319
H              3.001008179817997              1.1785120583195006              3.4154539866881026
H              3.060489237817589              1.9166124947425067              3.0972882666346164
H              3.01987547720687              4.47982314197106              0.15520876238917766
H              2.5007467593932775              4.769041451039774              0.6100175096797402
H              2.210321375243951              1.9591370532053083              0.358082673840382
H              1.919367309388367              1.4133772969267981              0.8547555540815063
H              -0.35263417918071827              0.05842722317537135              -2.0631072437659776
H              0.12094086683851252              0.3540228125555354              -2.4170780001098744
H              5.023584912301968              2.2074087253289547              0.6912888269279582
H              4.60507258037138              2.7118536247542173              0.47082779358719745
H              4.271955012927973              4.694934099610844              2.7138489682234765
H              4.033274737546258              4.358610531733185              3.3269300332149334
H              3.037698757954217              1.479499865905153              3.104287785030374
H              3.3927291107698254              2.0288180115272194              3.070582359288784
H              2.959436970407327              4.593025869749001              0.04917057030176907
H              2.535670179819764              4.402566374946446              0.6477228368809511
H              2.3857150323102045              1.7961531592696522              0.41566809031540924
H              1.9191475302285785              1.9469327891377208              0.9404482576367852
H              -0.41836485307773563              -0.09408309913952091              -1.8510736180331189
H              0.1927670929344295              0.15823540545148806              -2.3403577022221236
H              4.722180912514507              2.167500922993701              0.9397173565705208
H              4.778046974900299              2.573541413121592              0.34169925443031074
H              4.3670751562007935              4.270106223764298              2.888670106921174
H              4.02698906886636              4.130698288930258              3.565620977053409
H              3.1541077151414045              1.2934353431039336              3.2840556934695573
H              3.069552524142439              2.0788059293052017              3.145366214098482
H              2.903348599368039              4.663768419630813              -0.003381351098560675
H              2.6397063898090463              4.207657461481706              0.5356305576509387
H              2.3507103554100666              1.6246791685543753              0.5123206408052031
H              1.9977519432904443              1.9034646235801462              1.140941981938538
H              -0.33486673182436955              -0.0399522252096322              -1.5588693227663513
H              0.02347587979131357              0.16056586784371654              -2.1749649164113953
H              4.777924346597888              2.025244977203297              1.0814127915215743
H              4.668079742361854              2.5566878983038435              0.5802145643213222
H              4.510557434472205              4.278864545753851              3.038801315993103
H              3.9800983201252498              4.068653331841971              3.448466358628287
H              2.8982003569938546              1.3813566899468923              3.366519731849633
H              3.1254717921467203              2.0879585626946633              3.2986099345215534
H              2.8073189725085044              4.51955540898426              -0.001689975110852756
H              2.7515506169813353              4.154790770223929              0.6120501900012341
