72

H              2.2467664142317414              1.5045563134198572              0.6922798207817329
H              1.776912155462882              2.0506263173075676              0.9142299227567859
H              0.2973336982572452              -0.41320995807556365              -1.6598153966801954
H              0.11972563073080203              0.13402756079121472              -2.045435786564337
H              5.224603066698871              2.360267405452851              1.4748735987252355
H              4.8792611390203735              1.9664994619323337              0.9560162713264966
H              4.100496636984455              4.4353642368875885              3.2932070695338744
H              3.9968704375970714              3.9717150798958487              2.7357676764596626
H              3.2509087392557854              1.2454443314820853              3.3883897576204483
H              3.211619006522717              1.9743212756922828              3.234253892537152
H              3.0185450007805543              4.094595772548344              0.5133361463751102
H              2.7401499824553732              4.756280202120223              0.46021887515978244
H              2.101461158914546              1.7170113008341514              0.6693829543410389
H              1.4516263831259857              1.8192744584442788              0.9613021714942303
H              0.4287234852108104              -0.36318258685382754              -1.7851260041551318
H              0.14487389157296657              0.25693722986163064              -2.0871246368506386
H              5.656702524919291              2.453185486863185              1.347927918076371
H              4.968225633844528              2.0488215458588956              1.1985804248494645
H              4.112137887257223              4.859539135108037              3.034520171319804
H              4.130140295270663              4.30009354974303              2.6257599896276003
H              3.3786858673046942              1.2909196553593973              3.0719272350090523
H              3.4106874497539446              2.015543395603212              3.17173347304033
H              3.03721629829842              4.259176533034092              0.6096634020291897
H              2.9101730845992013              4.981247461648518              0.6020007347390556
H              2.2909214964258258              1.7323602420379565              0.47782202812960295
H              1.5217808453978914              1.7721250349625162              0.6812528584147337
H              0.38478853943307095              -0.5299668295630117              -2.2182360660776452
H              0.32467325921912393              0.315254241271244              -2.040809593225813
H              5.547998167916467              2.526727203900431              1.153097631629991
H              4.847314122810157              2.234667339641994              0.9176968015315901
H              3.940599047235358              5.000566868150122              2.9237982459377303
H              4.0195599343173045              4.288433752458573              2.897038357707571
H              3.4475894030908094              1.3388534648732928              3.0046366696368603
H              3.3484139793559984              2.0903006984840578              3.180176665014421
H              3.170564622496204              4.095971879182701              0.43387027780390686
H              2.913511611712724              4.743354874878273              0.6017958608619222
H              2.2753431564876965              1.4066695715493573              0.8738743975690584
H              1.693210662740677              1.6412627370555242              0.5774499642991102
H              0.39839533045272363              -0.631048007418667              -2.1235813393442147
H              0.576147724754926              0.1110030764395339              -2.3137727357912077
H              5.524847425711297              2.4341416471544117              1.6984872240094875
H              5.107188655878996              2.415001105261775              1.0145210177755517
H              4.323245246774461              4.856513625608482              2.979406357444428
H              4.012433017202655              4.170507846582885              2.938591551765642
H              3.0561174194534826              1.341946665562349              3.2364405538123706
H              3.4651613164743846              1.9620772538130051              3.0527978179832624
H              3.286569536459869              4.113351999670274              0.5848765457796103
H              2.7759667051649437              4.675159423014423              0.6384447028731816
H              2.3513097191627192              1.468682778246126              0.6827861071330724
H              1.9115077457745073              1.6643212908635119              1.275417591532657
H              0.3736902732845636              -0.4723185301643657              -1.6934963238488285
H              0.4427328020324033              0.08563315992372592              -2.198291969611923
H              5.728482002801164              2.5340179068929634              1.2674354126341474
H              5.015507603114154              2.3523294579087843              0.9574592448879972
H              4.339981036005884              4.517759974624725              3.0990751777319967
H              4.296909966299526              3.973564556762401              2.6590429213807365
H              3.2896553637624746              1.9585044536129732              3.4204418663632343
H              3.2351019350733106              1.9286511811433367              2.7571981255643254
H              3.26172401040807              4.096794329564076              0.40162962778151057
H              2.79625407416008              4.466194932640369              0.8403629587240954
H              2.153031295706328              1.5457644878857013              0.9696394930610718
H              1.7183528888026305              2.135715880393335              0.8555352009027409
H              -0.12518577538582648              -0.35505284864265285              -1.598277399154189
H              0.23194091713720136              0.0643075619541995              -2.1609034004399805
H              5.410625958258062              2.4164874948108293              1.27602252351587
H              5.284474097696906              2.128332508230214              0.6073351767644736
H              4.103880921197432              4.501809588128392              3.139100906015958
H              4.196796159428367              3.836822354764999              2.8504901772403337
H              3.305484490525183              1.426960179569642              3.2745518327307277
H              3.4184722172540534              2.0955815024367537              3.121938597011366
H              3.0100720794645697              4.107802317878637              0.3510823967510311
H              2.7491621503373462              4.571537877053014              0.8180799433692258
