72

H              0.9996396604518122              0.7790301680547144              -0.32454329569981777
H              1.036400410407016              1.3540849860377155              0.1969569729603449
H              -1.2775009859315247              -2.0732941533265943              -1.986688731900881
H              -1.948218267500553              -2.1398432023898244              -1.7000933526748834
H              3.6937635076867              0.9795778025268389              1.1534130979217194
H              4.131170732139166              1.4878450332655593              1.01175035608087
H              3.835103762487797              3.910603060223174              2.6651143433748996
H              4.428961766199709              4.143011229891343              3.0806252565737346
H              1.5689038012751957              1.9788908282158704              2.8894663619597853
H              1.6462224100327945              2.202316728045668              2.24275793485654
H              2.5746797144483455              4.14175094683211              0.3260260722292908
H              1.8660396836537054              4.0151096665743475              0.06302143351140463
H              0.6910603067019518              1.0128464210831605              -0.2258266590554311
H              1.2976075020823519              0.6383331853138774              -0.15953828331096623
H              -1.3075008145588658              -2.259800221052868              -2.2378124177993146
H              -2.049526788104626              -2.1921017168024157              -2.025073236272622
H              3.9780123873689544              0.891316646190927              1.1661653070544955
H              4.467910606827841              1.461576156269625              1.23428322744506
H              3.673068535041798              3.906786217832482              2.6786712854050325
H              3.9449626443017247              4.215770078592681              3.301689245778936
H              1.1918401036933912              1.9396926885767454              2.592854604552825
H              1.8475711778116257              2.302055359360008              2.5185241451164124
H              2.688914567651765              3.8931482070067003              -0.25118917266516455
H              2.0727315122842285              3.9077597704010127              0.09618335884383107
H              0.5690099993219688              0.6792792848159472              -0.33360844776447357
H              1.2706577619360053              0.8327951713377588              -0.3135751345429791
H              -1.0821729210846334              -2.298065277805555              -2.5519758906456875
H              -1.596668231889528              -2.25864189747409              -1.998936975535084
H              3.950576100746792              0.8708846722680645              1.2297579759209325
H              4.366551002823009              1.421553615812913              0.9746916513357111
H              3.510447341790867              3.862470621748112              2.597500251240788
H              3.7857726836840895              4.279098275412366              3.135413898263453
H              1.8976352947639172              2.158506013296352              2.8542098404309137
H              1.4469795825194047              2.3289921705737227              2.2567409075201437
H              2.5565523352796014              3.959950867642665              -0.30660578450673176
H              2.0617811891976725              3.87852281578753              0.2761268570351818
H              0.621845132306028              1.0054942192115823              -0.3322436156408812
H              1.2905120780150334              0.8502442601788328              -0.5771177960039214
H              -1.0806472563176646              -2.1118858709887096              -2.322982790034621
H              -1.6554095787942589              -2.472194510677803              -2.0212482189030743
H              3.4347617623076983              1.1686811961562669              1.3095195008038851
H              4.067609162231179              1.3829412438335917              0.9170198819052892
H              3.6770255295717953              3.953688875728748              2.6220782102891933
H              4.199160435559935              4.201909429912236              3.065901320353265
H              2.0769044032312007              2.3128091881864203              2.882368676924461
H              1.650692177766873              2.058186087939046              2.3844005130280377
H              2.6765098027643286              3.6956267797755005              0.15017594227373224
H              2.0374928141277424              4.0773115529062345              0.39007564228522223
H              0.8225115576088637              0.9748844168171628              -0.194970394050657
H              1.0862000024689153              0.7813393271425256              -0.7661561259305993
H              -1.233847607246695              -2.2976750327623807              -2.2979221340314653
H              -1.8431403584226747              -2.51727642815943              -1.8324641257667582
H              3.8692161335561948              0.9097010561582819              1.200426547674194
H              4.239001027341507              1.51526876229464              1.2293730964969336
H              3.6250335764771116              3.925158256223142              2.847670168640035
H              4.275231705410069              4.133901284415626              2.991611889298993
H              1.6356336372102078              1.902778448395047              2.838684267105829
H              1.374437058873906              2.2523575412225623              2.2407881536382597
H              2.6074755750252567              4.404037575743177              0.2769703893338506
H              2.064835719962919              3.993227556003864              0.550568738281681
H              0.7867378134265989              0.9066080899899989              -0.4627508496682127
H              1.343216101567621              0.9770582134442013              -0.008399427602165874
H              -1.3741618320404163              -2.071937933570138              -2.2595345311152606
H              -1.8000692018148283              -2.4714586290640645              -1.7563950404132251
H              3.6925941228375967              0.8136978747200947              1.3141347043057212
H              4.248937719070089              1.2977401847683687              1.0358426402983492
H              3.8242421694610558              3.816872402180418              2.73076492500938
H              4.262683244372164              4.156387283902755              3.2243374321067737
H              1.3358299828846174              1.975801428109567              2.796344167528658
H              1.812342958989244              2.3087974362626924              2.208246691626487
H              2.3998962079525805              4.363615846740316              0.3840353156505741
H              1.8330923223980025              3.8502171502713227              0.35747103042383077
