72

H              2.208815514956693              1.2866512911474695              0.6676948372122699
H              1.7471518652303855              1.674134541409929              1.1010279635221851
H              -0.9124453437382499              -1.00187212084845              -1.7631299379628804
H              -1.1786877356991876              -1.2325175992427886              -2.328361100367138
H              4.709396221788966              2.281595858774384              1.153182195974751
H              5.129799072308805              2.7213304127056106              0.8151186464701934
H              4.325933069702599              4.915235914099338              2.5859459690951425
H              4.681187386459307              4.502535494052473              3.1169926835580464
H              3.112456212804185              1.6012745881616064              3.815073197533528
H              3.2749363035769727              2.1761952859750533              3.312259934762804
H              2.901209529807462              4.481117282468032              0.8200434797244571
H              2.7179782731952877              4.031965966933509              0.26509377348602725
H              2.253597274831646              1.396942653111927              0.6190638229512508
H              1.7177254876835448              1.7254108896189448              0.9785680437144331
H              -0.6106405847060224              -1.1110188530501413              -1.7174802890606755
H              -1.0772433544721716              -1.332651049882528              -2.312139723572161
H              4.646721645487528              2.217128178207841              1.3018253749052757
H              5.111687563361554              2.4142559600669107              0.7235757425383437
H              4.255266528734708              4.893362568741431              2.8210319080963173
H              4.375186156146095              4.196687021325147              2.9357628380302607
H              3.464194387194138              1.698926786493689              3.685977841998171
H              3.0406143252657207              1.6915149091026538              3.043692358655299
H              3.2833562434074905              4.623184096621277              0.6202267109272227
H              2.859985236475611              4.115502918472559              0.3356669849410329
H              1.9476188752834562              1.3309295795796052              0.6594021801102821
H              1.9354309535163856              2.1093219096687705              0.6390251239059815
H              -0.5461504400413743              -1.2370382142216958              -1.5530204431632764
H              -0.9208595479753189              -1.41952182705454              -2.2795130839574065
H              4.963654192988971              2.3090913734119707              1.7600696040705848
H              5.14374528270083              2.390447466982771              1.0573645266595482
H              4.381154407732921              4.783188559467966              2.7458064864377514
H              4.474845160757459              4.036921690973185              2.879907651337626
H              3.0254143134367038              2.091563158440908              3.8306077865784065
H              3.1263323456448617              1.950381423595514              3.0444219932204866
H              3.3328779397621955              4.646162393518519              0.6686843548890661
H              2.9723075515058546              4.14882191086645              0.24034181686655226
H              2.2023483804706023              1.1853166883863548              0.8931635061648562
H              2.0471862026775685              1.8434599820155397              0.5157994243451086
H              -0.9163487909652985              -1.281905278792131              -1.6503625743038501
H              -1.1711932251745956              -1.6950788018631404              -2.2382514127514996
H              5.012372677783283              2.3497819877839645              1.515213985781735
H              5.025973862571629              2.8403057205115183              1.0554531380657362
H              4.580658754404635              4.701086421423777              2.5682051936903383
H              4.49208276483703              4.121329674910554              2.940742334235992
H              3.15149071621146              1.7962610432069173              3.7217687897380927
H              2.9078478802645216              2.4086724837355433              3.337420407327271
H              3.2270802015671745              4.758912924297972              0.27075725584097343
H              2.5783032377217645              4.364451391543924              0.3046869793927021
H              2.437041094663265              1.1712523348659871              0.68808933289732
H              1.8339018228754502              1.4666449866545015              0.8697611502427383
H              -1.091510040220762              -1.2907448032422137              -1.924844865331694
H              -1.2373536260822526              -1.8036191937610389              -2.4237238356891613
H              5.1531427433524435              2.3379825306432136              1.4282794285904352
H              5.307436307970911              2.757759019697341              0.9035231570763208
H              4.44098690302237              4.828562204736231              2.87942053203273
H              4.273373244775446              4.160175416871907              2.766778778769828
H              2.7750622276373393              1.5757367367473432              3.831941606367748
H              2.7307698528825513              2.117273176657113              3.1741762980889883
H              2.934455845109103              4.489955291460309              0.1355038097293467
H              2.556854163445932              4.0379950879695              0.5090289243703364
H              2.4438560658166675              1.1483694186329738              1.0258618088264893
H              1.8421497409620937              1.552260786473007              0.7304446684770515
H              -0.9351415891617746              -1.226046981299287              -1.886814592416813
H              -0.9551645761443764              -1.6706291871945371              -2.3946612836726646
H              5.119557644251526              2.3937617013309525              1.4159452753211945
H              5.257035646374663              2.7663129829691036              0.7435180099452386
H              4.56821301771469              4.819034365129421              2.765017017133421
H              4.40997786081511              4.152175178011157              3.1694155338118533
H              2.586535399143061              1.7426434917987395              3.7802122595360883
H              2.961975813053825              2.4271378032373616              3.5489669326256945
H              2.9337821172100877              4.592444110347561              0.4718519418572095
H              2.6628585572155496              3.9956335365679667              0.2626169230287185
