72

H              1.5774267328733962              1.0673812765028599              -0.6419233689971223
H              1.3504630659014811              1.251550729499439              -0.010552513604258537
H              -1.7774228965681178              -0.5762919900090674              -2.438238987444378
H              -1.308428093302234              -0.9762916634952908              -1.91510484679925
H              4.001383255101588              1.7410828443303636              0.6998107617837678
H              4.327263640809308              2.3621992400320777              0.8036465531714698
H              4.109953705140373              4.443019014525947              3.0412185349907817
H              3.9375785559606986              4.2703853557882985              2.423658134798794
H              1.6659219388665987              2.3956478221080078              2.2914188379270173
H              1.7844192684230356              1.779483534567243              2.675571870963257
H              1.7166276144190935              3.697647623624333              0.4111714094720717
H              1.6323480672188309              4.218747643590997              0.8786561432531484
H              1.630152289214465              1.2486404318355244              -0.45587109363502365
H              0.9979057086620798              1.3033178889295556              -0.11599398795686582
H              -1.454168408810679              -0.7801283882213115              -2.4038458912744534
H              -1.1355412600605082              -0.8395214467855333              -1.77469539966055
H              3.9480297859429094              1.7925473683077975              0.4162801545374131
H              4.395563653091544              2.1603126546510425              0.9663100050834357
H              4.1188352994463395              4.112230031050054              3.297089803932589
H              3.7021074597386354              4.098545421955247              2.7058060440789924
H              1.4135664250502193              2.513344087113738              2.4286762021574013
H              1.7447644674291876              1.8178080226029196              2.6329712541613794
H              1.815425812596174              3.8406686637346215              0.060468707266353824
H              1.5489057679368181              3.8370908393670344              0.7571390714248221
H              1.8377476127327752              1.0008474541868797              -0.42451678135901116
H              1.2227653592453598              1.2671800128339028              -0.06088987326968455
H              -1.3888574589502645              -0.9378083782362001              -2.4104780896226514
H              -1.0045539555697958              -1.0326540365926176              -1.736038291571067
H              4.180277158669175              1.5943421919786807              0.8609969869459977
H              4.581911618801013              2.1884037611716867              0.9305987377579815
H              4.160609924115266              4.398295240533955              3.1605172382856086
H              3.7760556500924585              4.1344566871599095              2.618137860796726
H              1.4595570685060761              2.432738821328858              2.62891843602463
H              1.649072891850029              1.7107964548400867              3.0522557201837976
H              1.9494071414608936              3.6686777920292415              0.17858442810472336
H              1.5463516600824676              3.940921310533678              0.7052143505853796
H              1.7442462595271326              1.015379836022117              -0.35495880283226866
H              1.059819903977764              1.1591840303298624              -0.1979368274398784
H              -1.7067057123638119              -0.9655696117097635              -2.5083854526150686
H              -1.3279524540577028              -1.1216017518041768              -1.8278349645535084
H              4.178163622006115              1.5403088123209319              0.7254524420394534
H              4.385272486283479              2.221024216503603              0.6281914477149718
H              3.7606191241430342              4.7410821440824025              2.956025938850923
H              3.8209993576528696              4.0918387286110285              2.5677236982325313
H              1.4437553525427709              2.3461544140502957              2.7960999423273383
H              1.5222514132925886              1.7644423542470344              3.2369330452929477
H              2.028902382896912              3.8065563425305955              0.47314888431173074
H              1.3937214773664541              4.10178827704484              0.5158664672321546
H              1.403393312844435              1.2012280539556093              -0.5621925145925091
H              1.2908874780911757              0.9135941340142585              0.05753028728824063
H              -1.8326307626452811              -0.908603977797435              -2.49967000674644
H              -1.514942193176297              -1.3183884239712083              -2.1022791546712547
H              3.6696521005010134              1.7547956544978773              0.945404428227974
H              4.24494697638804              2.104955727513333              1.0635978133377177
H              3.7694595132316993              4.453795997942107              3.1153072546867446
H              3.87135641032883              4.255772962040798              2.417046814921992
H              1.3422097750253108              2.0731645872299853              2.4511517012438797
H              1.8018609102479364              2.0856349103521867              2.966778931815411
H              1.9253262131278812              3.918660296892417              0.677144253211162
H              1.2582001998384955              4.189311606098688              0.9220822509459954
H              1.397410129770098              0.9461935614721654              -0.6594884767326419
H              1.44822579270238              1.4956305226322286              -0.17341662165023103
H              -1.7488462742925204              -0.7346319417578462              -2.318399892348744
H              -1.2512535536054765              -1.1076756213233285              -1.9599885767117453
H              3.80312712690401              1.7156553111004615              0.9451550789504344
H              4.076607510030156              2.408360875537551              1.2453144173508919
H              4.0575341626200885              4.428198127355389              2.9950264598552523
H              3.875582471492335              4.272847634937827              2.296523003773439
H              1.3063444854226807              2.32112275712443              2.604599428360159
H              1.6803680614658487              1.7328521887093882              2.7429361565418926
H              1.6273563761445637              3.7247341435639214              0.5353083564356936
H              1.481481691202913              3.9836436862367877              1.1852703142133107
