72

H              2.1115449018567327              1.5345640157548626              1.045481626453002
H              1.8441734987889498              2.227289922702047              1.0110884370367548
H              -0.3374710682999985              -1.181358649731436              -1.6328380770433222
H              -1.070719476706554              -1.2176212999802862              -1.6799353906950907
H              4.731367595697637              2.193850268708867              1.1518437083499382
H              5.056769913867808              2.898299004036403              1.2226791453863217
H              4.503224039364261              4.971142473081177              2.4942030646170315
H              4.565690470573565              4.731644111389942              3.1464624876019007
H              2.5045448258766605              2.005241767939913              3.746953119824905
H              2.8303855914169835              2.4577201745807646              3.335785146268961
H              3.0591113097763083              4.410317155185763              0.3731890416087944
H              2.803247538413561              3.835157447149284              0.7178808537105232
H              2.4656328640978544              1.6022344620803453              1.0419054877689582
H              1.7382135175693565              1.6309868145581028              0.7913824377070747
H              -0.5174893179795829              -1.0789278699570826              -1.9146875190836095
H              -1.0682128227902565              -1.5877648436355238              -1.9194150483465786
H              4.8747733090433005              2.2031090010783982              1.215338397074747
H              5.017964187337505              2.793631214666188              0.9338129067733358
H              4.273205401547424              5.092072630993568              2.527899203969957
H              4.00397069987906              4.591280818858062              3.0035330074590605
H              2.486433431311072              2.1626960618472295              4.00375588306834
H              2.647415196624448              2.275084580629105              3.381991533659369
H              2.8073797242104406              4.149827769213897              0.00014827789457174913
H              2.899015014605225              3.864321542501248              0.6958592484029229
H              2.4804480299839167              1.4592194404246208              1.0432970987622419
H              1.8912674257063247              1.6644108090693377              0.7285431926272632
H              -0.19067271795788793              -0.981327849581273              -2.1179607485473513
H              -0.6983277647635979              -1.466839942628133              -2.201281593596641
H              4.883697031721572              2.23781792179834              1.5347549087479102
H              5.277014412755705              2.7938871646467263              1.2643061668568554
H              4.082273160105727              5.109027037920095              2.42605257273707
H              4.175288691951263              4.558196485754819              2.894900035504023
H              2.3887167584304376              2.2038600440859972              3.6784700565966117
H              2.9962459380197735              2.1130636379472274              3.3862743571898246
H              2.58552249673204              4.224513075635562              0.42181285804373597
H              2.8068472298826483              3.5379381159422385              0.4836894560016925
H              2.364337199685709              1.3231469981530461              1.1373170465820894
H              1.9705457209594164              1.941352981772141              1.0533325673458438
H              0.03166207638129284              -1.017309330267334              -1.8640639548218192
H              -0.4965687494172964              -1.3426040402492128              -2.079760491279214
H              4.562609062938177              2.2553407571777173              1.0099481428020227
H              4.984825280629082              2.8923182628028554              1.1129772440826862
H              4.0008704192587965              4.668954648469931              2.5243329349813672
H              4.504073137307401              4.693703140395562              3.112801762917771
H              2.763156062502298              2.235125480168839              3.4648925847677408
H              3.3600279939341138              2.058568312644831              3.0827370782368324
H              2.823864178342029              4.509439891932829              0.43111227481484954
H              2.5770472729129272              3.8921657050031184              0.2860894549280952
H              2.2896237055795217              1.7672596727800793              0.8776317941402616
H              1.7300271102100369              2.085953767886899              1.2261399679021394
H              -0.011899647050316702              -1.2806901829349127              -1.7204624698287125
H              -0.744595747872488              -1.2283367136446912              -2.1552831263927437
H              4.685879375929519              1.9470944062408595              1.0484559868332743
H              5.06294467949019              2.5873429689278984              1.3446350325429082
H              4.06001926997342              4.884025101951725              2.650048280410178
H              4.400020248212158              4.432196490867171              3.149543987901518
H              2.8067908793478917              1.9557767313129395              3.5683446795484306
H              3.1111357000499114              1.479206077655769              3.1804404065478558
H              2.875356597247256              4.534145319477438              0.2940272496399519
H              2.9740415605578567              3.776729903067599              0.3583340604069377
H              2.2607846088113273              1.6076615325349948              1.0932219176355573
H              1.9905578727891313              2.2734190038740496              0.9003991363211002
H              0.008419740799598728              -1.2914695995133543              -1.7000468048629087
H              -0.7612924298680228              -1.330357924918279              -1.8828001619777708
H              4.9531128018664505              1.994000815114803              1.4455974585629237
H              4.98491804984592              2.6949027116834348              1.3909495883562706
H              4.634669798797772              4.765194028776471              2.6108882071417523
H              4.4373285853711435              4.462196160995342              3.2317514743936853
H              2.4505869594260443              2.1277220784340574              3.711815182128481
H              2.9214911421584793              1.7826795267938946              3.316866734649462
H              3.1350138830366063              4.525471172702155              0.30284464118280213
H              2.940824310411869              3.7494027745886              0.3821190293599235
