72

H              1.391062738125757              0.804242493295491              -0.5181457922898784
H              1.080812276432689              0.9869196289153479              0.09814570074970104
H              -1.243607738636892              -2.4497951461636753              -2.0050024936997675
H              -1.8837044082972516              -2.803174207559862              -2.241980513606645
H              3.9665614627212635              1.434551224391324              1.5196684420843285
H              4.565723909109301              1.4128372292364726              1.0562092450932288
H              3.964399539397622              3.6542872565313145              3.387986701709378
H              4.3673535411111875              4.067608741990358              2.8752202551841437
H              1.4522541853349673              2.0234666872076525              2.5907723860228464
H              1.2125509590959946              2.4904439816320205              2.086650928495348
H              2.8922719106382933              3.9426472671695665              0.08143744952607064
H              2.289777375197104              3.5475501934814053              0.13747647694275753
H              1.2651481773174282              0.459466892463567              -0.28961993986576445
H              1.0426528609587942              1.0536000441880182              -0.03839965081311542
H              -1.063278990659911              -2.416255789657465              -2.146047177146406
H              -1.5856763618218361              -2.7508782117343946              -2.2812487709828395
H              3.990831118257138              1.3905551334170332              1.445190551855471
H              4.550528984959693              1.521383458298101              1.1269895794159759
H              3.8491508113459023              3.351809799453083              3.3013840426312386
H              4.005273662596872              4.028644652886958              2.965577141379271
H              1.443372611783332              2.2076190726504197              2.335523490825756
H              0.813552608103845              2.3643291985204122              2.3857814753134545
H              2.9612612116628503              3.650703126175414              -0.19617361875875863
H              2.3496007746810754              3.6137743623854433              0.31553129870187907
H              0.7603917509810907              0.7194876512665453              -0.4354077143569094
H              1.2628113053123386              0.8171873416162763              0.11783900007030026
H              -0.9158981437258855              -2.529451566845702              -2.1358119821621084
H              -1.4032825360380274              -2.907151089339299              -2.49270017399841
H              3.977732860975608              1.3867526967550898              1.8067621852242968
H              4.482272420198683              1.4808066709578036              1.2582232629123293
H              3.756145164981178              3.559006118504842              3.270047078659794
H              4.178807145795992              4.05044510053862              2.77785953917454
H              1.754443728100072              2.195415161496431              2.3969995481071416
H              1.015977640289417              2.3999554269614087              2.3798500219399266
H              2.9469657450326245              3.1349402672791684              0.009381304508984159
H              2.412264516999109              3.5936499314309858              0.28133854839970934
H              0.4441495507013536              0.5851050214965181              -0.3872463212136415
H              0.981168054027936              1.0479043303569913              -0.23639275475273122
H              -0.8739142203795901              -2.694535936905404              -2.325537296232438
H              -1.625239557291367              -2.8377854873937096              -2.443750785383841
H              3.835657463144042              1.385556284929426              1.5793714648092487
H              4.3155072858645855              1.551224161315794              1.0252058357978642
H              3.705825690605156              3.86826762247002              3.3617680434544535
H              4.105174245216243              3.8673389703476455              2.6867491771587884
H              1.9158088172891727              2.259638774678185              2.259512461322999
H              1.1230006586964865              2.383031509333515              2.34045311330346
H              2.837771435250616              3.6434489986601815              -0.08730771247268021
H              2.5284286125434994              3.5122087815552128              0.5403345921954839
H              0.9873670808396535              0.6371732397644972              -0.26764797543126784
H              0.8768389496754794              1.2623204451105918              -0.024359813965207287
H              -0.9119134459837211              -2.6609449308264033              -2.1590413048339157
H              -1.5780956197107683              -2.9581824974708657              -2.308230936951962
H              3.7497772926268116              1.392740574430683              1.4937258135835338
H              4.417053783494279              1.1027587309931133              1.1556835296594057
H              3.9530876749637343              3.6152095224596503              3.44559565244507
H              4.3653544293601545              3.8358476749960104              2.899729609196272
H              1.6656684443902061              2.109029164972797              2.2582977455367557
H              0.9435918123721823              2.483376711577676              2.4313198148928943
H              2.8456104208440456              3.9140177802190887              0.23768992464445898
H              2.192928010153641              3.7344089994163023              0.5549679740016975
H              1.2622190954487058              0.8460580578204956              -0.45610111267832787
H              1.1623582598511015              0.9314082757911387              0.2648553375478419
H              -0.9653997929466521              -2.551087838213672              -1.733306656497412
H              -1.626104258406701              -2.8650333343414682              -2.1159073340822636
H              4.083609346730275              1.0336671478646067              1.5718781577924743
H              4.522227641435165              1.4682374376702507              1.3007884365439246
H              4.212649523101758              3.7017502706148795              3.521171039222387
H              4.3843139886489295              3.8248263407677277              2.784699201537293
H              1.412534157567108              2.0491445492750997              2.5802028906511816
H              0.7430516203282643              2.482489165716458              2.388802321692507
H              2.659333780893344              4.049202569746225              0.4247013623634044
H              2.1832415522911623              3.568734004119531              0.19443125296080715
