72

H              2.379756313348803              1.7242812674287957              1.0846734868113892
H              1.7504106997795315              1.5675848707820643              0.7164230407753941
H              0.8988501980582566              -0.7060104690909687              -1.759982307774192
H              0.7095253790144941              0.12095685527132374              -1.8111802159020027
H              5.154556232247734              2.4993891189546606              1.1081155154746625
H              4.82864012111188              1.8690874702401254              0.8494620407624021
H              3.9950470564609573              4.426094014106151              3.2576604654621835
H              4.330813722112389              4.489968532427597              2.5677497080827942
H              3.68388726438328              1.3490722610779857              3.3895939037155713
H              3.0655141804745623              1.9306701752001783              3.4086230054463686
H              2.4406546992711666              3.9293616953926342              0.5419616298393446
H              2.7552374459036804              4.6152562278347204              0.4278562683566714
H              2.0474707532966794              1.542457241936938              0.9560757147382287
H              1.5284839300549031              2.0771734444747847              0.6888721702763585
H              0.726643569352939              -0.7159077539317538              -1.7403222710468893
H              0.8342648468128199              -0.03524529293407573              -1.842632377304882
H              5.004593919117296              2.4837472664593              1.2794322521690944
H              4.882929617679131              1.7767016639406166              1.265987272619913
H              3.909208024706949              4.803866802872656              3.228370068650938
H              4.380664459192446              4.357095228182668              2.828287696889438
H              3.694500571868712              1.092996786234195              3.625972196795994
H              3.1569090533576296              1.6719889287737555              3.4315848608117756
H              2.8896257154701988              3.984060975052609              0.5336985952754063
H              2.951223820107335              4.645982047155046              0.2386376178533282
H              2.2479696831785314              1.225519696118249              0.8985125655105454
H              1.688290315231993              1.6706775277902384              0.9057960377193128
H              0.9981520882286488              -0.8159763539790046              -1.8388723482038678
H              0.6491712819288272              -0.11846179539783083              -1.7624075415476061
H              5.159664314810148              2.521659036278308              1.2408898404278177
H              4.813906656785162              1.9596617002895904              1.732973175371678
H              4.06334302854369              4.954236505314905              3.1863947505046015
H              4.46515896490122              4.448777135431182              2.9786523992311147
H              3.4024607452296074              1.1966462949215861              3.4893289074246177
H              2.9273212093621828              1.7751486453930934              3.3006715505831123
H              3.3156565036139454              3.912851605258634              0.44138442809120765
H              2.9867652372524245              4.544694736229119              0.3026215229431482
H              2.122444605308178              1.5679753117001969              1.289479350867397
H              1.760898734473336              1.6481010059781618              0.7072949383498294
H              0.8808950790118621              -0.9293528978085769              -1.657163137246663
H              0.3945189557977353              -0.24942574670174966              -1.7909204677155524
H              5.385207878763838              2.6786775164883063              1.1686110216913965
H              5.264219775477004              1.8998936578100905              1.183657207414535
H              4.018666838291637              4.895410973469627              3.1768072868514055
H              4.56317037659233              4.668062379479511              2.810503027041471
H              3.282907107519468              1.4765853519050882              3.13443351954654
H              2.948433290669802              2.066233249512685              3.5486474839947033
H              3.209912290761017              4.036173361798189              0.6851764139274436
H              2.873745011663734              4.672941928141978              0.5465552747658918
H              2.5258902112149517              1.2932108731265064              0.7135703949565927
H              2.012220928505894              1.8004044403805404              0.8713461106275252
H              0.6273316991113016              -0.9644877853537968              -1.9399273530956653
H              0.17242646134058368              -0.43867946777585315              -1.8986054035580384
H              5.017637290446774              2.5695833286875494              1.1100820673834897
H              5.087204758780562              1.8714579992306108              1.337102118556418
H              3.692344232608614              4.70736117983937              3.1425122655511295
H              4.411805459202852              4.576406632140052              3.010667056978133
H              3.191959661223699              1.5292674039812546              3.309756618261581
H              2.9327714203251727              2.1847176127818675              3.3533023325330356
H              3.0091579706570286              4.043227986437196              0.6129447009410298
H              2.6036951888829396              4.288685107254386              0.09947171569427213
H              2.674581462437729              1.4925929704502234              0.8973270716381324
H              1.9789514932438654              1.6760110672721076              0.7960407663606484
H              0.675078011669479              -0.8632780703972772              -2.095775891005372
H              0.3942163208684089              -0.25146388257873803              -2.107412308138279
H              5.111775802953435              2.6382206725849784              1.3090226285453277
H              5.172685872215148              1.8699321105899152              1.4366508134026303
H              3.80568656435644              4.614109000446675              2.976416028997789
H              4.491883282884473              4.627243283940688              2.743180130055929
H              3.0508452734755926              1.2788459428910846              3.08781001870436
H              3.2177639645220144              1.7966184576331792              3.5861766019878
H              2.6297295907313245              4.022979456332165              0.8150866016391618
H              2.613937084801699              4.408636794911738              0.1737113033910578
