72

H              2.0233350647229624              1.8664599638291384              0.21768689853514148
H              1.8322520484801983              1.3494642317046674              0.7178363859461447
H              -0.7792848972550902              0.050916580629214066              -2.1308399794713555
H              -0.1683082865903638              0.2386859280425047              -2.6039539842389625
H              4.706906945333845              2.064656582007445              0.6654408521606048
H              4.427483582036036              2.6894675303703366              0.5873630941937186
H              3.919147906088443              4.29558727591208              2.6765817765482645
H              3.941683473222186              4.655251455977207              3.360624037872128
H              2.949758285640043              1.330753776112855              2.857144966641551
H              2.716602989320426              2.0013474257101516              3.0954986087845153
H              2.868287191311824              4.340804611608594              0.026392600797222412
H              2.3596143801584657              4.359543499206065              0.571095770483408
H              1.8308024383851074              1.9902616682370518              0.3609795380572501
H              1.9648221428981685              1.4762070235208034              0.8466356401031104
H              -0.589738679753282              0.1308121542721091              -1.9171075252155243
H              0.02439386977921892              0.1393173901815155              -2.3273391777277337
H              4.605219887436893              2.0335201426106164              0.7142322057733771
H              4.667890027433781              2.57110274414638              0.18886625263242182
H              4.286175770700483              4.28219832385082              2.746109358136325
H              4.078888204530866              4.275775600491268              3.443921044793418
H              2.8753021979689364              1.1541460934503684              3.1725923643186476
H              2.8954049247079428              1.863385260927704              3.2732396020449106
H              2.6227869651817515              4.608050482979489              0.09874414474149397
H              2.5766351223394013              4.210276201568845              0.7213296464134806
H              2.0550391319962573              1.766993321841879              0.39743721698127715
H              1.7342847012410256              1.7424283324357115              1.083857938287786
H              -0.8023428017573018              0.015784702618410446              -1.6849542334200787
H              -0.0742611877622167              0.11383193719940525              -1.9650837139105732
H              4.46484101690578              1.8776184076286317              0.62606674604697
H              4.592917834223622              2.5399536018708555              0.471994510328315
H              4.193472102952474              4.092925146452772              2.8781516194208
H              4.0121529143924075              4.379743434197014              3.5348996000702533
H              2.580564800528134              1.3888258065200383              3.3551084195533907
H              3.1046994579155975              2.0291667850711              3.3804898197933633
H              2.6092029535974564              4.47517791857727              0.07636681398212822
H              2.6116350339190357              4.077811073580505              0.6612104315290868
H              1.955456872066862              2.097913120362649              0.1546212899705786
H              1.6088702559233616              1.9697994628307123              0.7515815013149367
H              -1.1410528281094994              -0.20107874566817402              -2.116724106614011
H              -0.4810516231835343              0.008932169319634163              -2.1927927755950094
H              4.8378547601628545              1.991469776636787              1.0287853272907481
H              4.679668238695372              2.327857005505895              0.3391114287981526
H              3.713095117333171              4.444581122777536              2.7391971612681316
H              4.035707477127438              4.462487515373346              3.3881036615497653
H              2.4542238444990856              1.4536473647884498              3.298402041397167
H              3.026210684190504              1.8380438769760483              3.5303745586824116
H              2.920770677515336              4.3372046496452645              0.1316893939544858
H              2.2649385986211956              4.323329739055863              0.5390811964522305
H              2.069432205142515              2.180200775482922              0.09416266408116256
H              1.7481758476975235              1.5642259028531882              0.3617727247653014
H              -1.0132215249787964              -0.2161723724311997              -2.1356730902848806
H              -0.40366275881332175              0.25936777449178305              -2.4058184208118196
H              4.308492879273306              2.0286665624537927              0.9364802706136302
H              4.217737601446508              2.415121807025617              0.39030546875775046
H              3.6703318832514036              4.66266369636796              2.658236291372358
H              3.929530216502004              4.397302411969739              3.2425907997105816
H              2.423358731423162              1.656764402940973              3.46260556691112
H              3.087675571593225              1.4165309979533058              3.530768697983295
H              2.6032819731496963              4.491846683192021              0.11087402939383846
H              2.272758860817575              4.224149688872534              0.6900862490919466
H              2.035390327304778              1.9394333849565584              0.19861143027473632
H              1.505848901575369              1.5841572018074477              0.6380293786067306
H              -0.8501778502597447              -0.08288281566830906              -2.0414791720418144
H              -0.2966344715952921              0.15948415708016972              -2.5555256169502107
H              4.579441235481837              2.030621930069168              0.9161093174264178
H              4.3367957730331685              2.589757764135024              0.6254893091981384
H              3.8239468277853987              4.719483195405885              2.5057060581416883
H              4.113199004446762              4.565299536091812              3.144638815243671
H              2.5786259828465528              1.2931575450564003              3.202922568796124
H              3.170199796598605              1.7213465604270837              3.264095337879398
H              2.7266237362829204              4.622480901889326              0.16048210354193063
H              2.356341928836224              4.734431732464023              0.7687048686632015
