72

H              2.376222217384434              1.6846811039329892              1.1097954023943462
H              1.7602290160127503              1.580228507168717              0.796529991050147
H              0.8010638290784016              -0.6514415931834373              -1.7096838357605442
H              0.6264489826169094              0.07313266412921968              -1.7777120450654673
H              5.0972281947678315              2.515898493709813              1.0644593619907181
H              4.791792918056604              1.8121340351334116              0.9092573391087903
H              3.9772629096253236              4.399331043778356              3.2243155753506882
H              4.355324591434153              4.536094890379392              2.6533731239578526
H              3.7146077524227428              1.4871372608646485              3.2824874908582204
H              3.084466034503374              1.9146417080133677              3.409990878072148
H              2.4169236884891623              3.940385719741088              0.4556921527515073
H              2.7578147863008784              4.603161312721028              0.42315972458332035
H              2.052052692880688              1.5820624895507904              0.9480919983893069
H              1.6103437758764285              2.0694041643364294              0.6822145532270947
H              0.734253854980018              -0.8167417571214399              -1.7909978816585705
H              0.7959406411672905              0.0358624661839801              -1.8135770478857796
H              4.9277087155808506              2.4806593999509987              1.213694391679903
H              4.8733719006878              1.7049547198707211              1.2346097075504978
H              3.8375543368398395              4.811964262934315              3.195436992519196
H              4.334488409803604              4.438751866966601              2.85778623659144
H              3.697361471323276              1.0773146622918315              3.5523616208179356
H              3.092599057234123              1.6630738714099793              3.4853377779351664
H              2.84505192245519              4.004993621314063              0.5923681832474562
H              2.9488880492989336              4.657788941416356              0.15341525836770378
H              2.2840195525837936              1.3060071694975928              0.8882726676433674
H              1.6263997488129158              1.5867129190432738              0.8707112029492421
H              1.0717212525838193              -0.7771397432621303              -1.8565132074773694
H              0.706973833669221              -0.1855357327819048              -1.7561412658962325
H              5.177434108115077              2.447338281042457              1.3156334105134553
H              4.834259991820219              1.9708085499901868              1.724677205276146
H              4.052662529914797              5.057153731201317              3.2196169015251375
H              4.456205183521135              4.458771405041773              2.9414094735925014
H              3.3749392014902897              1.238814908816728              3.470325796610121
H              2.9339779675620634              1.838854706625035              3.3243074627259035
H              3.2716226525884986              3.9272056323630604              0.459242679968443
H              2.969532723815654              4.6029535981833805              0.2542579613467242
H              2.199673456222034              1.600017848589651              1.2904704683052262
H              1.748613864566108              1.6508169699491393              0.6410622489565266
H              0.8786361126612907              -0.8897325886989458              -1.7358494289834978
H              0.4482593233090956              -0.33247587285311864              -1.7906912881929034
H              5.372098355822562              2.714092104018177              1.098937782171094
H              5.216962669288209              1.98118503426278              1.2674044312430073
H              3.97232835850185              4.928393489837976              3.0964416834370154
H              4.6450609527315585              4.6944628567929              2.846547162022766
H              3.3717198203647887              1.5010244549280243              3.1454647550674513
H              2.923890670713098              2.0846665489330922              3.5363909827135744
H              3.226029396026053              3.9991683644268052              0.6097936446789111
H              2.8919290382991734              4.631479244121359              0.5685918787188892
H              2.5102700704546517              1.279852481178379              0.7564545482940518
H              2.0319066959477525              1.7700494481770745              0.786173688634728
H              0.6485005698479964              -1.058375335984045              -1.962897999280535
H              0.21421974697158222              -0.3791911412933786              -1.923248865886151
H              4.974932249674865              2.6173215472151146              1.1455235322333037
H              5.052447051035116              1.877442429337594              1.2479858991162436
H              3.697312844712563              4.692259196703994              3.1627818582230303
H              4.404238085299743              4.526279929013513              3.0282396115499055
H              3.1158746224037994              1.3884258824175135              3.3759828462260453
H              2.962968107387148              2.1792768904590867              3.4204663147066867
H              3.03265311587297              3.976244450964316              0.6525943600095094
H              2.5669382961589133              4.211066126853792              0.11940328081410428
H              2.694305274215345              1.458703816024105              0.9171522907367876
H              1.9931445919640502              1.7577418017507849              0.8891466136969125
H              0.7677893514557037              -0.9430167983084675              -1.9776043339544307
H              0.3826711217311485              -0.24620772988462739              -2.0744757931323097
H              5.050234447580821              2.6718135169093227              1.2974016756173772
H              5.178770774158337              1.8205312095999242              1.4568277687127877
H              3.885169685178074              4.485027709802291              3.042922147069706
H              4.521934738060101              4.624431630583475              2.712430843645523
H              3.0365161852672204              1.2789378824532485              3.1498134419986075
H              3.16245444472301              1.8899009469175443              3.6229251217360114
H              2.6348026837183185              4.057455719236817              0.8368532545658817
H              2.6296714223510067              4.342916374030299              0.1810010978772729
