72

H              2.53658012311863              1.456328048406401              0.6567105935359634
H              1.8392890735252951              1.6529338094984583              0.6612634882688501
H              -0.05381495426936218              -0.45300790466598756              -2.0243833990010396
H              0.3380805677305832              0.25080148196215907              -2.3698911011049795
H              4.928590743695018              2.235825006480055              1.382652070385535
H              4.746493462353836              2.642446910065051              0.8094847090558033
H              4.4180940691980695              4.579336757646852              2.9487743335479206
H              3.8492236102230044              4.240364812909137              3.3870440814878404
H              3.068497608762088              1.613341334270733              3.3099751098325787
H              3.1977500101029186              2.2633396049849424              2.845900292292769
H              3.1624806763144147              4.571073418663119              0.060721982041581905
H              2.6575321683100506              4.30431629698164              0.6274565711728736
H              2.312558415993592              1.8064723308679984              0.46801496620157357
H              2.1101059368816864              1.801223614096389              1.2467487651221463
H              -0.19215594488652205              -0.27064162532241115              -1.7797123771256953
H              0.12666798287618666              0.047304553414764326              -2.343654548133993
H              5.484783017719039              2.3169402509792176              1.0729254565074322
H              4.992421246968515              2.495365579729422              0.6134903591667366
H              4.491941349583382              4.737422869456455              2.930663576916089
H              4.158052397802345              4.07968699946681              3.0522565626974787
H              3.029381702494859              1.7965422728736584              3.431930610144721
H              3.199683261612439              2.0656887677697133              2.721381712185316
H              3.175710771180603              4.454843128389569              0.22888093067305348
H              2.593679827706565              4.540016028324673              0.6794393667335523
H              2.4046011748174787              1.8389632486259595              0.4620182678302283
H              1.9235470780785038              2.027834939694992              0.9194148163070768
H              -0.4846257105595983              -0.08913729740716056              -1.769578948488033
H              -0.12728606740011195              0.19189222414710694              -2.266430890703245
H              5.098168303762858              2.1708256533450703              0.9150106518513301
H              4.814135121114175              2.418512053378115              0.3180942549851031
H              4.110166751916696              4.5120380564919635              3.0003121957822434
H              4.100862776961458              3.870132384954792              3.3577237222532896
H              2.9107570601261665              1.814635912685276              3.3808859936908093
H              3.541314746548244              1.887729186680979              3.099625439746852
H              2.818409958136405              4.301191122678226              0.003194181900127847
H              2.5182206232389195              4.4040396381797535              0.6823896694672269
H              2.2914377724234556              1.8261758677590796              0.5058020563191722
H              1.8097243369509655              2.2895526617399327              0.8338562610471234
H              -0.14059339520529854              -0.15623225624209042              -1.6475535514496997
H              -0.04112886449593005              0.2907261078867545              -2.2846589687993206
H              4.9342788919000835              2.222293272030433              1.3101848590397347
H              4.59368343131481              2.2889356340348335              0.6298717971302793
H              4.244307126178375              4.4847508502506095              3.134103271228122
H              4.036985897260622              3.8255196159451437              2.9602792570878402
H              3.286371786472697              1.182901194898099              3.4665176291173236
H              3.1668012185408254              1.9225157353908449              3.377956063339286
H              2.790419218103361              4.313252075672337              0.13965194948366885
H              2.678298275278559              4.742173213386874              0.7227006742586067
H              2.1408033619319835              1.9517918007169102              0.44819202425263527
H              1.7074917368610019              1.7904762307917477              0.9942364925948266
H              -0.03430274270411385              -0.10418201096977589              -1.7978601461658985
H              0.0725189328798166              0.5264637851486317              -2.1625421863691137
H              5.115776157076567              2.3272906670227136              1.0818863567291275
H              4.49197665319904              2.3902854634902804              0.8834288718468756
H              4.203284294938014              4.75094205250437              3.0418614585349055
H              3.998912439703896              4.038054193676187              2.8971389565516095
H              3.2407966834204465              1.4072042948140568              3.1674316107761014
H              3.451573518462828              2.15929643907185              3.184656325246202
H              3.019633038132227              4.254930623723169              0.15650314263572307
H              2.8059650080896072              4.706537246581632              0.6828036383308229
H              2.261828007352659              2.1020898260901997              0.40980798830277426
H              1.6240841429386002              1.8675616361364369              0.6719282993588195
H              -0.14055281654179733              -0.2558828905266997              -2.2324137469646756
H              0.16272203529424945              0.35874518998005867              -2.2074228630241346
H              5.202901013576958              2.516593946636821              1.131071097015149
H              4.677422056812044              2.3528636481120735              0.5783073162801868
H              4.046371093832605              4.842122460760053              2.856219371327431
H              4.038286247848406              4.207071264775572              3.1678999198935864
H              3.209552931523697              1.4908752992853995              3.1843788804191906
H              3.4629641568623066              2.161092275341505              3.008466971899594
H              3.2612890112256654              4.324380138532823              0.1354014090261921
H              2.753041414682709              4.623654353095163              0.6508426146824055
