72

H              1.2846857831201428              0.8849200362680831              -0.29157549158719626
H              0.7672174813134018              1.17591443590775              0.10568130643172308
H              -1.0837713570739016              -2.2969527745523286              -1.9091767255066892
H              -1.543552111850621              -2.688049134260954              -2.3231118059509357
H              3.9349469807799284              1.5226151203877725              1.5404971522242568
H              4.305253033376598              1.5712964022699039              0.856950884603007
H              4.216402532169138              3.6325576540661024              3.4741839739247498
H              4.373218198472615              3.89715206135687              2.749604305874736
H              1.6373926961426088              2.3255517009663325              2.718157231902552
H              1.0339395837379086              2.412208285560984              2.3035308972035113
H              3.0296020841546962              3.719522939484855              0.27222438560727613
H              2.3724257591712536              3.5680001792113796              0.08565735756786923
H              1.1379851521315871              0.6277374134924519              -0.0016352788356283636
H              0.8156396741143865              1.1342177603017516              -0.24419735292047454
H              -0.8876032196770244              -2.6211776755078096              -2.0150961852430287
H              -1.4822246970082444              -2.6553284307760543              -2.299063949402075
H              4.177229185103266              1.4894702779881073              1.6271923702771136
H              4.6384418343696385              1.7450900212786442              1.1719533666758932
H              4.017623564810765              3.434399981311865              3.470183250843365
H              4.190928853857606              3.789126841301812              2.7676745614813067
H              1.4983060850050582              2.165360093595973              2.285910402893095
H              0.8399040545415624              2.327793158122344              2.2442157211052605
H              3.1508437570928423              3.7129952868703735              -0.07201183166737012
H              2.68902381432099              3.569616371997243              0.5223329724180145
H              0.7652226838174777              0.9409482071510058              -0.5416457098416263
H              1.1460271425639823              0.9789357490347808              0.08924113729780396
H              -0.7476569649139861              -2.5563911364117016              -2.0866578206056747
H              -1.337116403526918              -2.9080744169066524              -2.412534915841633
H              3.8159953101046264              1.4506099143936884              1.6858365005265672
H              4.409548475335467              1.3470341590498203              1.2290546399409898
H              3.9332375632879093              3.3055222990860176              3.357557018111047
H              3.9995700434504244              3.8887842337058935              2.8387627972265435
H              1.5484614504510692              2.135014218730208              2.4686977207463863
H              0.9886143062015551              2.3889627911954046              2.085053039521894
H              2.9372747424424706              3.229170834915013              -0.02692390235917797
H              2.5101741953642445              3.5026209427100556              0.5334414724581638
H              0.6506498879367285              0.5840220664689806              -0.17287434802421683
H              1.2740663632564773              0.9483893855943285              -0.13749445504709928
H              -0.9210851948641151              -2.7264572844682657              -2.05350795841475
H              -1.5794744081836725              -2.9429853092840235              -2.3810829473503197
H              3.614532926922664              1.5102017423680099              1.5911383871484615
H              4.274834245934707              1.3315018532618934              1.2162522845856545
H              3.861577175110767              3.9726584013460347              3.2538176287208307
H              4.348533893614703              3.649979962701842              2.7302110861267455
H              1.5455804107591218              2.150372221602267              1.954361153649211
H              1.2447299133557752              2.2263782272655597              2.6725575111225033
H              2.9399914563581535              3.4770289829432492              0.17293506230115085
H              2.3402297474120286              3.6750144218911216              0.5205816445212708
H              0.8816613299650434              0.593251995572679              -0.3481492413028339
H              0.8337682855834821              1.0927773983903986              0.10755716866700181
H              -1.255562712292617              -2.68488812951418              -2.176137513689198
H              -1.7770845545895113              -3.1853081057992787              -2.4903267901442923
H              3.8612384857749222              1.2147967226382486              1.5010125380839228
H              4.658343014407006              1.3291122410179532              1.3916078421917568
H              3.757673029606764              3.688620560223026              3.4990426231436906
H              4.196236834274145              3.9605811836023324              2.9220201879175165
H              1.3232104946179968              1.9018826193541005              2.2856601199458013
H              0.8948464422938087              2.52071418281236              2.607644195789286
H              2.743382162558158              3.8500531703335574              0.005019839047090407
H              2.1851760742864643              3.577487293072518              0.4191084909445445
H              1.36425317783702              0.6624885811733197              -0.4341687073992071
H              1.0164516116087579              0.8716216935020518              0.19465529981657292
H              -0.9800671245849513              -2.4800088334099075              -2.196772677477851
H              -1.6214081863445957              -3.0471094588534373              -2.2732734465913205
H              4.168220248726833              1.2077860692789415              1.5811459005635677
H              4.638744842606527              1.444870312750089              1.0835107984199084
H              3.993930861127481              3.642670549107765              3.408035855639092
H              4.129948547465855              4.02013955146107              2.78358251396314
H              1.7105269881644536              2.261940526882625              2.3523403174091158
H              0.9837150474857651              2.6406979182482613              2.325942725159505
H              2.5944347202193536              4.204698811072181              0.2903828891169859
H              2.231271991814437              3.5811866133878705              0.27329349641551526
