72

H              2.3812100789193686              1.5889610810655335              1.0573895970773157
H              2.059184259410148              1.790961979845075              0.4887720572359713
H              -0.3737834966968809              -1.2382400192049188              -1.8784736260040826
H              -0.8047391986674195              -1.8263508225207743              -2.34580104096656
H              5.006877789231844              2.1476028340923166              1.6957166852320973
H              5.1934059860499815              2.803052778944609              1.283360700534025
H              4.317057015877137              4.858046628005395              2.642005094460542
H              4.141211377610877              4.183981965182031              2.828815453366318
H              2.677156737276204              2.040804538281309              3.7966471581603884
H              2.940117202848087              1.7959999555714707              3.17448902372941
H              2.9815266611626474              4.435575403343684              -0.05952623358881323
H              2.8368658228494827              3.998171567424814              0.5122164850026214
H              2.17566230656106              1.1264707271400767              0.9663059660216637
H              2.2086251019856196              1.9014876967280108              0.9002067849949309
H              -0.367267190674514              -1.2488508386312203              -1.8159033353245768
H              -0.8297864377888935              -1.6255464483081095              -2.229980625296355
H              5.030457025385286              2.280902801041191              1.4654646608011872
H              5.2339078700123              2.9846784720156476              1.3293826189262257
H              4.538494845487916              4.806690755478616              2.5212332489817033
H              4.532963381004083              4.30850824646949              3.131252896817993
H              2.480512322310283              1.9523645008313928              3.622666635975138
H              2.9791883578442264              2.1440439658168913              3.2297391134836997
H              2.8640966599819593              4.4819635470321355              0.16846148425010374
H              2.55218444355356              3.8440623623918655              0.5139900719968503
H              2.3077161355279032              1.3733418738827974              0.9866537016787871
H              1.819994748802895              1.7993348856396862              1.25714807427531
H              -0.5720218476028299              -1.2893663268621756              -1.6578887116941154
H              -1.122822621302688              -1.43521322971779              -2.0976049988130065
H              4.7520225650031875              2.2500896576532505              0.997970835326339
H              5.0813873699387715              2.93879769061453              0.9139449783133828
H              4.551219580695734              4.774879128489665              2.5957894419014766
H              4.471957752771869              4.525495393880399              3.270253249243442
H              2.747331069365336              1.7617689045720373              3.8416768785771516
H              2.8092159582628757              2.229889336791544              3.2557147553421864
H              2.7878432094124603              4.663075646198096              0.3309791444421774
H              2.838450330533717              3.936920600750517              0.38966266657672444
H              2.3505903649874496              1.602446752440125              0.7925064864013499
H              1.667203290901039              1.5992770222166948              1.1082893195615964
H              -0.5260042795286382              -1.0803265555633423              -1.8032425602944404
H              -1.2016913453720852              -1.2520552910897238              -2.1433861368842773
H              4.795717858706639              2.003806194144349              1.341108754547964
H              5.155458399816103              2.6701562964504166              1.094183048667769
H              4.3894072166450355              5.084201864448635              2.6191091306216063
H              4.293831804970764              4.4580753673315705              3.0969604544789155
H              2.593086163298719              1.860463289730095              3.9239245120062076
H              2.9262766248499674              1.8933817469804926              3.287360364986879
H              2.8391366114378473              4.34762026060101              0.516478819434534
H              3.0105313058895886              3.6099641649951777              0.3420178677100343
H              2.3422247472864997              1.5254708886116402              0.9788166016973568
H              1.7868735498310442              2.0145822359372194              0.901130637617243
H              -0.2206278288115882              -0.9417798356566718              -1.8023270766314883
H              -0.8958253894539687              -1.2109554469274462              -1.9395981192312002
H              4.5613520344989436              2.3115208616275886              1.4806438788271672
H              5.0632832836814154              2.7534534746610904              1.0559895352397848
H              4.3363922489907365              5.031117641245757              2.4713181491523715
H              4.561016962978614              4.472930600433969              3.0179407797469753
H              2.837180698500025              1.8787553700099429              3.59600377993965
H              3.172356827546285              2.3284438648742385              3.160576649888496
H              3.220676826917552              4.426328373972437              0.673283500581366
H              2.741844624604211              3.9559245268525265              0.3900348309091464
H              2.169189635023533              1.436582695384051              0.8370706368914054
H              1.7842369012956938              2.0242648805219825              0.892732492634364
H              -0.32004771221822076              -0.989073304096087              -1.65698075996441
H              -0.8971180271193039              -1.4350168766580118              -2.05719414842436
H              4.592732717533628              2.30252937988225              1.4488647505075314
H              4.945308713141879              2.65252438680247              0.9398857924611863
H              4.067255541307278              4.964113998386817              2.5884826298644663
H              4.376563242917261              4.423917803536547              2.8864922170604888
H              3.008281742246133              2.1908384924066953              3.6445817011805133
H              3.1167819931603873              2.0243272154005374              2.9514750263419263
H              3.1969793997769766              4.544044278386326              0.3425298977434085
H              2.7596149210032426              3.9495833168821797              0.4343682121677707
