72

H              2.4120361783126496              1.5919212546112265              0.8201309203962787
H              1.7254645295332036              1.709260244597149              0.5604930181525966
H              0.9903569267031              -0.806699888191929              -2.080707102894237
H              0.861998907923665              -0.036417546839503497              -2.000803304522099
H              5.324588998676283              2.5621624481975975              1.372155802455751
H              4.958239820475792              2.009954842715742              1.067914704426322
H              3.9947698979770467              4.729757780682981              3.1956254981872947
H              4.284900348446375              4.349441401766872              2.567308080246249
H              3.2214994804341965              1.026523761028851              3.703928776062167
H              3.2513739335407306              1.741437071887187              3.338223361432348
H              2.7884834282628717              3.9406108088770635              0.8055774404810866
H              2.8040593872420536              4.5290594697838396              0.31678374994259034
H              2.1986252967788285              1.3972487414408676              1.0238582004341175
H              1.4947834902478119              1.7510536689969436              0.8481939210537865
H              0.7540876387701142              -0.6316011933971198              -1.640360530624378
H              0.8593050592806518              -0.0463718111842754              -1.9538875757890295
H              5.426757026827915              2.6253502307394436              1.4367246092867123
H              4.933767436807735              2.009870576213105              1.3080791263546525
H              4.238982065100305              4.666992929293498              3.233150017788851
H              4.499768876801296              4.2345294806881455              2.714321130344013
H              3.5258994893701883              1.29086108913304              3.7083477280215877
H              3.2616045074370756              1.7949240406175102              3.155488100888209
H              3.0328846213307155              3.8985439256249683              0.44643283276133344
H              2.8950125528220285              4.567435760144611              0.5893371012892156
H              2.0550087955875154              1.3239345644081513              1.0312910781343192
H              1.8909319371731554              2.012099301126375              0.8879618526132785
H              0.5467475343433098              -0.8104704895664481              -1.6146473546276081
H              0.5169991251174438              -0.03477409731874231              -1.8418809364565356
H              5.070034277988053              2.678545065095082              1.0641563272579257
H              5.011557764129501              1.893700292178917              1.2680198717920756
H              3.970827144761262              4.601169766680626              3.1854148982714254
H              4.534521476837974              4.300138286080738              2.899501230149464
H              3.553243074224444              1.252362000715089              3.4999796777329286
H              2.95949737004764              1.68908769886809              3.319964762858516
H              3.2512850620900466              3.8663974514709656              0.47784818825879566
H              2.9184223025197964              4.5024070536058325              0.5020040620070988
H              2.146879523142337              1.2856347133305743              1.1291648256923374
H              1.740238191185068              1.7987004722605797              0.8228276147164072
H              0.6975163856698738              -0.8494934129773996              -1.5817286358260638
H              0.28339891425144215              -0.15215324971755373              -1.8635322692091576
H              5.18842629387404              2.459326357201073              1.4638387389063887
H              5.226738431828202              1.7037579111462453              1.1573786545184384
H              3.9753043362753413              4.759549357287341              3.3540090542789773
H              4.310010660140656              4.440038218995779              2.842350882499742
H              3.0680920314907634              1.2304229885881632              3.2256593766030117
H              3.061486686517238              1.952321992784996              3.508289280032365
H              3.071494187051335              4.151606634367003              0.774668338630863
H              2.7805566609481747              4.617857644272718              0.25938039158396686
H              2.4869819334623173              1.4654748877071602              0.8375082536861144
H              1.824756319741953              1.7474393920005542              1.011122254526902
H              0.756300010741113              -0.69837667696598              -1.8520879649657351
H              0.1540884192548844              -0.34185833024596696              -1.8293294175467296
H              5.323379155601776              2.436463146354039              1.0407517891993368
H              5.197767914678692              1.9031464343857158              1.5726275266843446
H              3.803412685499944              4.763418970328701              3.0586748962512877
H              4.4594844203297805              4.74103821345939              2.7691075967448135
H              3.4574972072714987              1.7179617195355161              3.027056764500381
H              2.891022803781391              2.073468271511976              3.2868419064082692
H              2.951132594283569              4.20332292896773              0.6529693572018447
H              2.7683959062943844              4.724431535528481              0.15171645298618172
H              2.409888758229248              1.6356152563548827              0.8397892281903816
H              1.7597860714667903              1.498277634409403              0.4973366974641406
H              0.5705835104119211              -0.7425289559335481              -2.233838314921231
H              0.3945575006891324              -0.061693327581143625              -2.053426111411039
H              5.348149890715177              2.588679201802538              1.212208489370801
H              5.0668296155626              1.8971738436671601              1.1495897790523881
H              3.684782953710849              5.006074718257971              2.95953982531919
H              4.251534038425198              4.5903213738057325              2.815087760522601
H              3.2906796703242187              1.2749403637253187              2.9612873589351523
H              3.317862810610409              1.788722064028929              3.5114489362926307
H              2.724847339334216              3.9503855892429147              0.6037035910893669
H              2.679249174414656              4.657652382940915              0.3064015236264068
