72

H              2.191755432540065              1.2719196272616726              0.7717564684373766
H              1.5956407903494665              1.672810202640644              0.868254804842821
H              0.47275486560981306              -1.2007645866300323              -1.9449610802166821
H              -0.22681353520111106              -1.278742844584146              -1.7649496106565845
H              5.083852475593323              1.9305113720976048              0.9528551008678672
H              5.014803001971952              2.5374239854667366              1.4380456206847074
H              3.7079135959754828              4.762998018061118              2.5400837531157907
H              4.1064806412201715              4.6373929711154              3.137849765874853
H              2.5793023709778087              2.5527645021316947              3.805425539089824
H              2.4748595760631757              1.9150328217168715              4.030773809761721
H              2.905058034735666              4.381525739891255              0.46157570621650523
H              3.2182991983422156              3.753387081861456              0.23903369009000358
H              2.2228367970315217              1.332924973643501              1.2661722957989945
H              1.844852462383542              1.5581886319742606              0.6343985162216713
H              0.45126831925155825              -1.1939991584053753              -1.8563491244452928
H              -0.355484561873529              -1.2539803227726165              -1.8090770054714849
H              4.970263832182954              2.3689544498070143              0.7907832632940418
H              5.171771141656089              2.7220103412284575              1.4042730638665661
H              4.100011788220382              4.50819190360317              2.4066445333167197
H              4.140327939339884              4.862662190395241              3.0403363019738916
H              2.288612381783612              2.538449636064608              3.644296548389444
H              2.8483484652702065              2.5466033840011475              4.1928716473960295
H              2.6726508595397167              4.392430162460739              0.6106412861040071
H              3.0564176088372492              3.7716297473687046              0.4511143866831551
H              2.270483703950397              1.2781087246232403              0.9063372479033189
H              1.582886429677248              1.1436787724315816              1.1394192850727538
H              0.1540380654165104              -1.1138455607698234              -2.019720668873363
H              -0.4586976143053652              -0.9644289126332688              -1.7272341303696268
H              4.622333881696092              2.4549650472334847              0.4800892412138776
H              5.055061386033871              2.335769433196665              1.0254289282316602
H              3.621200740529585              4.504842588539371              2.509875071669372
H              4.042461557458204              4.787739773523327              3.068960640172615
H              2.408999769814974              2.40160118719797              3.629224934043166
H              3.141672087250362              2.269893913786778              4.004839370225936
H              2.461655252928072              4.374643717201933              0.3904302484191538
H              2.9117807125983717              3.7760756700213944              0.4702146829288256
H              2.2511529417707066              1.6999110614580182              1.0340751572504436
H              1.6188297703205539              1.3005970928664892              1.0594709322940463
H              0.3539550040865963              -1.1698002695525058              -2.114562342540971
H              -0.06249445373284484              -0.7961900414839757              -1.7343631150538725
H              4.724862706150532              1.9916457790794744              0.7336560859400476
H              5.140671578356864              2.244487515499318              1.2626453510248412
H              3.6199327783993707              4.522022458746064              2.4724739145877836
H              4.008138718976857              4.612403273389163              3.115242653945294
H              2.426886311400518              2.24621581782449              3.701486632519721
H              3.183491617593716              1.9581080990067887              3.8530949343007888
H              2.626469647979184              4.526762247622406              0.35406418548022
H              2.980420852043955              3.8949407323518948              0.40989666936448
H              2.162331218375654              1.5420551383438288              1.2615457553360703
H              1.440235844222413              1.495303329148233              0.9561478447882062
H              0.5807850795264451              -1.0221541452592073              -1.8983107615658317
H              -0.0181835626655271              -0.5794212553976685              -1.4959242786653015
H              4.813818466951817              1.9882820392735887              0.7459444716427086
H              4.912934772512525              2.1857283358398893              1.4835275787407711
H              3.729734970671721              4.521296842795239              2.715679318893841
H              4.355109151924689              4.798367063025284              3.0695524787284474
H              2.944171237568624              2.592696382402202              3.2710392738729266
H              3.0910958718161483              2.0370592463645045              3.835792687314924
H              2.6757760946403044              4.67170764219571              0.38366905424009284
H              3.127015936571698              4.021647792823694              0.27448235087249895
H              1.9538331526871506              1.5857361897866753              1.2925731454309128
H              1.6636022037004985              1.9118355849394149              0.7471877393938002
H              0.4516007381820257              -1.1867613599400613              -1.898886054167283
H              -0.23024795550025745              -0.8272566492169561              -1.4988495373977369
H              4.6715794329466105              2.189804607884914              0.584490987791625
H              4.929339511711414              2.2428101060605115              1.3100171646057717
H              3.679671152133064              4.709330200069015              2.690959675346403
H              4.281081238187206              4.8381657697872935              3.030384215410197
H              3.059068311436607              2.5576080963910313              3.6851680548759913
H              2.863769677941317              1.7317197562334985              3.6516958128566244
H              2.933160867347888              4.749946710411724              0.3642014317644846
H              3.189634675121717              3.9850500415105476              0.40272847190576455
