72

H              0.7408728944098595              0.6751844226789138              -0.45172550095738306
H              1.3985217207111633              0.8538225482697348              -0.4786377152738323
H              -1.3901989250756823              -1.5354998017051473              -2.544118358490369
H              -1.5364881019250136              -1.8860424652942467              -1.8001721876081
H              4.012268019974547              1.2027077914185538              0.8060563630314826
H              4.081710070982526              1.971546853330688              0.6658831046591421
H              3.9589007701142434              4.405099720399138              2.314524871660953
H              4.042283121202347              4.295156558313381              3.085446478885892
H              1.7288554422891946              2.131011927347378              3.1070377948526486
H              1.4912298954670948              2.0312516178160647              2.4065828241479275
H              2.4865099885055404              4.138356627328242              0.15906763777961658
H              1.92366825517581              4.315517115575408              0.6386301082981571
H              0.8929136830831748              0.809413564598452              -0.2700337543967095
H              1.5131475232080067              0.6780809685977834              -0.5544841391941507
H              -1.2578361219382295              -1.64264399755878              -2.2977468946888298
H              -1.5535812631215162              -1.8886773997239439              -1.6975616425545192
H              3.6960713000737213              1.3029325539580303              0.7829290187105922
H              4.028676511749229              1.8984741513492533              1.1245675834823528
H              4.184297160418589              3.9334752994743805              2.531722501613989
H              3.835117369365278              3.889447318151772              3.213065217765255
H              1.277144534983572              2.2054148502471853              2.8390947415897956
H              1.857989085772348              2.083220426650541              2.393562851258365
H              2.4850551428101246              4.208734754503183              0.24536548714540524
H              2.0533127365189676              4.057194839028268              0.8574159091173074
H              1.003158691602461              0.7729121357315764              -0.42792939076533554
H              1.447308767445558              1.2522755717931253              -0.17636780002302457
H              -1.2632872599880092              -1.783701152374359              -2.1079844487589483
H              -1.5026501763704805              -1.9094021262275207              -1.440207204715772
H              3.6381387135073875              1.2494527997604394              1.0864023775816625
H              4.160568401111151              1.8374039558195905              1.2487057528083776
H              4.030193651412507              3.979129146440245              2.321769418776641
H              4.0078744575108995              3.88517861743074              3.0681321605308773
H              1.2727869185303038              2.207321883426482              2.773015642453363
H              1.831987238199224              1.903301393348957              2.4417583078803533
H              2.4424648171722136              4.288988489333833              0.7071010938865506
H              1.8598732901022452              3.828073726397755              0.5905944642478458
H              1.0754318406597516              0.93866282646825              -0.6577410399296568
H              1.6125618492401506              1.2945840976657697              -0.2773015853843799
H              -1.6642326628555297              -1.7533937601883258              -2.314528431362222
H              -2.089756853664115              -1.9388857138146813              -1.6475189873063294
H              3.375572018727935              1.2979181615131627              1.0798875587802035
H              4.02700382856177              1.5884482310513741              0.9671335055059337
H              3.718391567379628              4.434779519157781              2.43782194673331
H              3.9391181033541214              3.9027868451479355              2.9305935108478867
H              1.4153333866521554              2.1675497637518624              2.6150693523542077
H              2.2089246631195727              2.0650922512234984              2.43480467463436
H              2.4474401779741624              3.9205588283841166              0.6248875690162959
H              1.7596261899009835              4.057387131435843              0.4469896724800862
H              0.8487757359447522              1.1295038271686741              -0.5767173939061714
H              1.5758203626597533              0.9764319846643928              -0.6180114731121635
H              -1.7127203110774314              -1.9282291910268754              -2.5529962019668275
H              -2.0304681387672776              -1.8888642257622867              -1.86611704841499
H              3.5666924040445376              1.1315243577763265              0.9168383802843806
H              4.196939927726862              1.5356621331816966              1.1607798745835936
H              3.7096675794736367              4.568713526034794              2.57923220577354
H              3.618460330136069              3.9835191694013194              2.9447814584667693
H              1.415240290287358              1.8790786700141193              2.658770919490988
H              1.6700833924199332              2.40921729192796              2.254169314104288
H              2.244511725834719              4.138314376372027              0.26437704905339215
H              1.6706428671831475              4.2006284864873              0.6410484630266311
H              0.7876960485310235              0.9799822411039761              -0.6236458784092018
H              1.5336007249015844              0.7671284786532191              -0.46413170892652367
H              -1.4882999488698296              -1.5557975269689273              -2.5790382513578125
H              -1.6875088268845153              -2.0760835658985              -2.008624305333499
H              3.871984530737383              1.018974936645731              1.0584810505644697
H              4.144927484529257              1.6911179719093603              1.114791223416578
H              4.024752924168378              4.466286869403186              2.449003859697258
H              3.6585872757346865              4.401835809696063              3.116601847471511
H              1.365576215687539              2.120133872695942              3.003239182685863
H              1.6359635223542803              2.084061486110804              2.423084878413187
H              2.208532961674774              3.899208754006222              0.11810691567291139
H              1.6809517272124523              4.0757671383997724              0.603076822702226
