72

H              1.4864429350058044              1.5948673626097658              0.19161902001744988
H              1.434496813428771              1.159857767971031              0.7804289530563366
H              -1.4943904200278493              0.010106623940999133              -2.0709030627466323
H              -0.789124991561029              0.006894210952561012              -2.0205220187299835
H              4.387835513811953              1.6493871596187897              0.4504657400727956
H              4.33571529185106              2.4714797343725805              0.3827217149899478
H              3.48814347232263              3.9921628778800726              2.609527163135613
H              4.031300704568702              4.546109268736029              2.8728861920466002
H              2.1116133256127596              1.789358694676584              2.7241923217615724
H              2.576493680954981              1.572216072926128              3.259410218352276
H              2.271505409674756              3.9938749258645707              0.34253112396668844
H              1.9963700267238187              4.486951769910463              0.935424541120541
H              1.4752271410716065              1.8405260942966282              0.33655257316764053
H              1.146927973896296              1.1963475151019654              0.5295178718965946
H              -1.4103720792421588              -0.16443343789946632              -2.367518954832402
H              -0.673190851138506              -0.08614218998354077              -2.189442499455366
H              4.103736125051507              1.877403188087567              0.8544181972351419
H              4.626791001829331              2.2521995688859358              0.4955445325119367
H              3.3684855984315885              4.086903953820206              2.8329067144362967
H              3.9507192690270796              4.551038302948553              3.002227782265087
H              2.195015198282416              1.980485318707196              2.5073347337955143
H              2.558759970553294              1.6030171180150885              2.992804183924572
H              2.4225288422066944              4.249384595064336              0.1737490511065632
H              2.069733384495204              4.355310527051189              0.8103776383588864
H              1.7023742754838254              1.5924234112496678              0.09471110539554559
H              1.2134318773085087              1.2976401665958175              0.580270830420557
H              -1.0434231769933926              -0.2784848503690994              -2.292506752080934
H              -0.40347946494103903              -0.023289825487872257              -2.331342493132042
H              4.332037936820755              1.7698426185825396              0.8611430245682075
H              4.513759486778502              2.544783305036902              0.7064519551926797
H              3.535082524564116              4.058526497387845              2.8043375359753497
H              3.8168169862626433              4.800801641444487              2.896887302267933
H              2.028465905494905              1.869256801366402              2.5374910737381398
H              2.548724146796506              1.854840187278088              3.1194983342442395
H              2.478745379091964              3.960251237904507              0.2121731837982047
H              2.1248115751318633              3.9372953978926852              0.852180851849857
H              1.433379048380946              1.959524185876617              0.1572659286839183
H              1.3403138277389564              1.2257327684062072              0.39646447888056324
H              -1.2190129234939033              -0.21643862514034423              -2.38697407848112
H              -0.5146872362666769              -0.2671151421945523              -2.3054850592049436
H              4.739557703196575              1.760138424085119              0.611470998024929
H              4.691371427096051              2.53303404149595              0.36574027329842934
H              3.563084861617116              4.308134965081467              2.859680117821645
H              4.077596730827932              4.760162128766909              2.658032839584996
H              2.5205253553833273              1.6001036733605332              2.6275298982229276
H              2.3131701673305516              2.1770084567571066              3.118304425622759
H              2.599388004275651              4.043476924279425              0.5379786857006231
H              1.8976668020408238              4.280323212077254              0.6748005774154291
H              1.589506891604328              1.8704693716034886              0.16701204830407024
H              1.409086695670847              1.2057875117246584              0.23843303352663928
H              -1.3776070826319564              -0.1533389290448963              -2.2332019997108423
H              -0.6439204207352095              -0.42930455490379044              -2.268562204605018
H              4.11675604515564              1.815899682736825              0.47061266383110745
H              4.574077549158392              2.370375418797349              0.74921013091675
H              3.5723233174755378              3.966521790922043              3.0716560594031197
H              3.994532154673142              4.527778938154055              2.8521558059182603
H              2.1277841902220676              1.631576415927155              2.6243565682500942
H              2.4148987336845362              2.110348015300867              3.2010792556962078
H              2.277300102824017              4.304894770292907              0.4467337015102612
H              1.8465757812295982              3.835973468630345              0.7910429263737504
H              1.408002133796593              1.6023864437600892              0.09764903162800166
H              1.6018404023783035              1.2047000299403043              0.7347629032419427
H              -1.3713274826890438              -0.16477022104096217              -1.9168307798973352
H              -0.6456962484426559              -0.28573405800808716              -2.2861574742372066
H              4.439850864372866              1.716823940284453              0.7467564331859552
H              4.564745561237084              2.4065024598935767              0.736596593766888
H              3.794518247765805              4.010687814533098              2.4527683045919115
H              4.103573547327617              4.45585429957076              2.9687427382574185
H              1.9996165999503497              1.3183503354809005              3.017768972833189
H              2.433940499627047              1.8151583852320723              3.118554382644494
H              2.153866922717621              4.183951687898263              0.4678424013831973
H              1.9704322612349399              4.322606665235501              1.1607248028638686
