72

H              2.3370165210677345              1.3792418525449865              1.0941256042336784
H              1.9877825319345857              1.9797456273294787              0.6928198175305564
H              1.0762618615831445              -1.045290872538319              -1.7432279845276726
H              0.4376795739566328              -0.6992059051659787              -1.6430994998406994
H              4.835855709976302              2.6119548599433657              0.8704119783191012
H              5.023430985636537              1.9846699763071831              1.2793050876905125
H              3.870868617714678              4.664435839070256              3.1384594625118067
H              4.55367043515717              4.8143023873696595              2.938050179155971
H              3.06373749997152              1.8668078655482094              3.3130966827937653
H              2.726684506939986              2.157444481094264              3.9535672063643057
H              3.1487741286262616              4.116445356879377              0.8814963608468305
H              2.8993134671340086              4.168990490253275              0.18178731041495266
H              2.6408212796093307              1.443515032738342              0.7671085844620892
H              1.9762189186318797              1.6647815987257402              0.7842612489731886
H              0.7641685140319957              -1.092597117427942              -1.8558296487350932
H              0.06941423662890034              -0.7332467180980031              -1.8205367869905427
H              4.660008807151046              2.5685593831781506              0.9772474480645437
H              4.9631309953476315              2.042691934449619              1.4250907834660003
H              3.6853075927251786              4.582157659016796              3.012871778660102
H              4.423144220927833              4.703288352553025              3.0667027447868356
H              3.0748174722249293              2.0580901567876007              3.289464941541383
H              2.8430991206932927              2.2528632657274783              3.9723955159208444
H              2.8330677725589237              3.7489043125704593              0.7125197339602368
H              2.7684222336721636              4.211269908456166              0.04522559272424942
H              2.888071827426246              1.4764411508031043              1.0530343846339556
H              2.1891732637285597              1.5955372798875358              0.7100808268658458
H              0.7375191081369797              -1.0371448705978068              -2.111833496035622
H              0.2855145553354739              -0.5210657558742018              -1.8772377011270815
H              4.559467943344185              2.5291195206052457              0.8976763697660034
H              4.822727307038554              2.1307147028379014              1.404149967506879
H              3.7575013839068263              4.351557548475003              2.7516849310520173
H              4.321326303349903              4.801413078937003              3.0238247665615727
H              2.9856939458047567              1.783780749342866              3.147825092749717
H              3.106106683278466              1.9803423101696445              3.861575127808659
H              2.5491900077918674              3.829217771440828              0.7278252240867448
H              2.717620942040358              4.1659930991107315              0.07585926001197763
H              2.5000288025740347              1.7463456620087503              1.1353923747767682
H              1.8150905227796452              1.4706698111560261              0.8176758508263836
H              0.8434998386505114              -0.9154392824014181              -1.8155455077908038
H              0.7100878735594303              -0.12651757501191543              -1.6640062255823027
H              4.729933588880575              2.451579761801277              1.051025841891283
H              4.725361156315102              1.6840347714396111              0.9127621601833952
H              3.76073780610611              4.433308672216585              3.17591063008199
H              4.382549594662631              4.5962826110211195              2.802912743689975
H              3.2528582610024643              1.7141751364683164              3.174366046196474
H              3.147130040801478              2.1384015474427764              3.7588419781862674
H              2.3703423029327326              3.9962573633963663              0.7006417160011995
H              2.763471216817579              4.344274773721849              0.1770893434966503
H              2.379775345436109              1.830746988472986              1.06824311000139
H              1.6768112817366065              1.82943095877078              0.7833413510141691
H              0.8445844196968573              -0.9687270344186966              -1.7752867475314866
H              0.656896916062154              -0.2245848339928649              -1.5869724152733962
H              4.555978072743972              2.3072843418843108              0.9174096504878516
H              4.685351050952231              1.8110381758329017              1.4475333700136368
H              3.7739774694759376              4.605999069026657              3.1033684911430597
H              4.501674340837755              4.615614316676219              2.9709384584227108
H              3.658520461407761              1.8379038087907138              3.517024456650438
H              2.950846948447473              1.8791560024479659              3.5930021050490666
H              2.7733326740937287              4.003868698641227              0.458249535250456
H              3.0230641354972345              4.505569460286018              0.005601096104075696
H              2.314358444701753              1.3970137358725028              1.0970669360847476
H              1.7123841803612116              1.6081341319464426              0.663708661684428
H              0.9103685697436502              -0.9889498100385303              -1.9123091516286643
H              0.5674060271544064              -0.3110685229476323              -1.6884524598666393
H              4.765440623183712              2.456769716810244              1.0347666111585219
H              4.696365550406541              1.876898306985351              1.6570845260612859
H              3.811450251190313              4.9352499972408              3.083893020840788
H              4.509904899465833              4.6511125837029885              3.126457728775237
H              3.391501093769464              1.619059355388771              3.304796227788754
H              2.8487171387150396              1.813818512210638              3.7247605036554376
H              3.1497486240775223              3.8364302048901076              0.42212956099941157
H              2.9489333551001544              4.476689619420283              0.11946238995779765
