72

H              2.5526483346654447              1.7135420059524475              0.6457217678567357
H              1.9862735182801008              1.2911610768579411              0.7310412819949975
H              0.8550317703547411              -1.055430059561094              -2.167279303059101
H              0.46606031657653574              -0.6046665520800069              -1.8339516897770909
H              4.681753428031717              2.467962210832039              0.8933689991687873
H              4.570076884773347              2.1488707166818983              1.598587339761208
H              3.60651518865184              4.6501493231768585              2.771622942323341
H              4.277775455402954              4.532569403573229              2.9771276515547775
H              3.392371368798722              1.959111275833195              3.441760407386367
H              2.8816778274532195              2.1512900073555894              3.922238580612315
H              2.846767513487749              3.708560092593185              0.41681539800028183
H              2.7378927762065417              4.3081363325654385              0.031819215989783545
H              2.31413341020862              1.4122686608850323              1.1687457959769487
H              1.9592117489764693              1.7012970052751792              0.6260513166936266
H              0.9138452870982868              -1.207888871278371              -1.9481975345105658
H              0.6992686948670873              -0.5336428657777773              -1.7634476802089145
H              4.712370808291968              2.6656858454903              0.9369588960362928
H              4.8724445843781385              2.012163914525745              1.233898485908777
H              3.8064095255573003              4.4112813124556585              2.9336641536580452
H              4.474468458100935              4.53459823327826              2.9339375352081336
H              3.0121270451704287              1.508983757695147              3.47542814771196
H              2.9547370682343783              2.057342858307009              4.1685192363437755
H              3.007828527793257              4.13666508803137              0.8656929460499276
H              2.7423970129643807              4.033226539479157              0.14996077247109554
H              2.287538313287826              1.2882686533145096              0.9780273670522212
H              1.6644238684388701              1.6688512858901652              1.0181929022084997
H              0.8148639007541957              -1.1450392165623908              -1.511163801889331
H              0.3498567900715454              -0.5350740459786877              -1.533060886175671
H              4.613335919783748              2.4403663953883323              0.8583714196468302
H              4.88686740504882              1.9105841253710474              1.2107502838284872
H              3.885550944437011              4.177429131874535              3.2686156990966473
H              4.5136990569592115              4.6015177576560236              3.0208567275263376
H              3.184887730186729              2.057046026759266              3.5414175590677175
H              2.645151403854568              2.278927107039751              4.1175392643731055
H              2.8161343861243835              4.173446763845793              0.7536205670648328
H              3.0863143084442046              4.0406252769916335              0.07012972309263721
H              2.34419619190467              1.429287735943732              1.3215867703592712
H              1.8732867089117422              1.685610609094381              0.7331964077987456
H              0.4228211395409031              -1.060531301306332              -1.7170233991066726
H              -0.031510488722695094              -0.5650865849355394              -1.622831075290533
H              4.4635836359445396              2.2750889418116516              0.8607926697104126
H              4.863022220920361              2.08466205246109              1.393555709894401
H              3.9242120494181307              4.42166582724701              2.8259358947462387
H              4.28413424275235              4.932897167705263              3.211413389855354
H              3.1738552848131656              2.4386452877676206              3.4722793403949397
H              2.8548050237097584              1.805530570495989              3.798316268708194
H              2.656855173635832              4.1092083582707675              0.4929123436183815
H              3.321254199758218              4.253454017148001              0.22844698321402707
H              2.5064493103795735              1.2975658993312256              1.1533685183580638
H              1.9403308177273673              1.5064852822291084              0.7188169618345007
H              0.7242209859479012              -0.9060393008287679              -2.046601020864605
H              0.09854650398497304              -0.5469829955650368              -1.5808322407559647
H              4.529442801845936              2.256613977244829              0.6842367386196306
H              4.877826972862751              1.8816339939812894              1.289376044678468
H              3.556688248873757              4.634611753329454              2.861857998437604
H              4.17122394989002              4.889951767154876              3.1055336520366112
H              2.9345675389479324              2.338056948485192              3.0589687049057463
H              2.9208989838631694              2.07709849367194              3.821261009539433
H              2.554331915364037              4.103819539970365              0.6942181252037165
H              2.9941165599171704              4.164681179983312              0.05382668626391271
H              2.5832679604787687              1.9158287090196287              0.9170987712050611
H              1.8842732095131405              1.6898504320890497              0.6691678873670668
H              0.9456086693678708              -0.9968117795990867              -2.0374589961983776
H              0.3615161924416049              -0.6744528663642125              -1.710914720933346
H              4.667183491053338              2.380044632715363              0.8208040569873443
H              5.000237868287836              1.9091881210582824              1.3528075698331499
H              3.5418978139276733              4.721935670552021              2.7709683732019577
H              4.292569753104825              4.7321624177507156              2.8512194830224047
H              2.97714621407136              2.2881492907295176              3.232437172790083
H              3.0471149519090774              2.257839309776632              3.9812250778630744
H              2.6778419261701636              4.054661531062493              0.7879168825474482
H              2.85389301813836              4.311452752854875              0.07927450401031694
