72

H              0.836250544116386              0.9860878958389658              -0.42470602631101023
H              1.5447692685145509              0.7512696122190772              -0.5855495134361309
H              -1.228003843041333              -1.9043477048734583              -2.422946509849924
H              -1.5161352920825015              -2.28179744033822              -1.8746910240325791
H              3.519099759897418              1.231430449781747              1.1902644012169494
H              4.123970099019741              1.5246555231727816              1.0879767258194393
H              3.893133912447509              4.186734469963908              2.386141128387026
H              3.861891435465754              4.031270227250642              3.1192067072764513
H              1.4565240819859986              2.1550006978220275              2.881169555002185
H              1.9846051315991458              2.154286486625189              2.412420419596512
H              2.518523498652318              3.9986664049915572              0.2929684051000064
H              1.873222953393361              4.133033646451228              0.7091960331708312
H              0.866055980613746              0.718402439128704              -0.7046676511399342
H              1.2932933531373343              1.09794060271683              -0.2664863243086885
H              -1.5212127566503755              -1.8225039851465017              -2.237413764912836
H              -1.6957038646696738              -2.3282440760517953              -1.8353657791086397
H              3.726983904130106              1.0591176693479711              1.0512011359667215
H              3.987558290689872              1.7144261464469412              1.170559028239567
H              3.68503415316668              4.162051001671726              2.4628513467922937
H              4.154830189785521              4.263023512592999              2.999702352679611
H              1.5639517749409244              2.1163382941764373              3.065724446524985
H              1.5913599477199571              1.9227872274183138              2.328468818322667
H              2.5060034262434114              4.230889526201848              0.6666408581528519
H              1.8230096199982075              4.066986923659498              0.5151920802296461
H              0.8423782385810782              0.9804453864463641              -0.32709140934015624
H              1.565863963973535              0.7271524531994924              -0.387713985066677
H              -1.653769175519533              -1.839623414325929              -2.360047310612375
H              -1.933998998388312              -2.1159318589341627              -1.7729184143990382
H              3.5155084347894308              1.148760556027743              1.113171270133138
H              4.061777636900732              1.5496005358068348              0.9195232540547918
H              3.8753427030588488              4.296731185887952              2.4853479541983066
H              4.069713691604239              3.9477477848733256              3.0845151317325814
H              1.6031514497232484              1.8900411098361902              2.7011523701531694
H              1.90959321838701              2.340628623754184              2.097190749289673
H              2.440088560970447              4.34300408378346              0.47133985442027504
H              1.762919790871503              4.268432117645674              0.8001072274383091
H              0.6957799706552995              1.1668214937437267              -0.13846050724727715
H              1.3906793992584405              1.0260592297871232              -0.38758186030387587
H              -1.3203684768797326              -1.7525227103589072              -2.109840229952198
H              -1.862784713892388              -1.8897334705681093              -1.607812654418128
H              3.6834442639826617              1.032942298210065              0.9311542019450352
H              3.9514168881887826              1.7119194284102368              1.2929504821634918
H              4.052010477269362              4.009467993964438              2.479386852685134
H              3.9777972108658752              4.011232898368651              3.1952645512012645
H              1.2572047974143512              2.019232934426374              2.850716381400399
H              1.7297947613337163              2.1360230068198685              2.269556332066541
H              2.355793153142675              4.221620311767658              0.22902496923665744
H              1.7441419876955597              3.914444072160285              0.5854572572778023
H              0.8198691220757868              0.9083578377311973              -0.4879980334717641
H              1.5031922201832826              0.9688394645970843              -0.18570904636333377
H              -1.3235122815455442              -1.900182122038923              -2.3347752663061456
H              -1.8929805400782314              -1.8889484584928318              -1.777738820592875
H              3.972886453975148              1.099293014799558              1.102292176204044
H              4.340051516430457              1.7058206652458128              1.0713575786945078
H              3.861777674205498              4.204503776446935              2.4259594385996004
H              3.9305297253627676              4.232438612348566              3.0952696016625225
H              1.345019059536444              2.08644091655584              2.8031265427287995
H              1.9978608206680344              2.0341424012963234              2.4049564545533015
H              2.6464097008904193              3.9702545214568574              0.1661840543740208
H              1.9395935287296922              3.9625982980374608              0.15621141244027045
H              0.8240160921642349              0.7083727359100628              -0.3156613233570328
H              1.1893316554481697              1.1637235177591754              -0.7285075603343241
H              -1.3394483605548861              -2.055582472721953              -2.6115670505760664
H              -1.6876768066667265              -1.8188166017839855              -1.8708938006238054
H              3.7175867399394638              1.0253638483995875              0.8488797589995167
H              4.246073430452208              1.66613734325986              0.8263390920205798
H              3.6022250282799138              4.162815822814439              2.455392397936645
H              3.649619849789117              4.081665645642287              3.171091329646349
H              1.65070648691019              2.050952894532906              2.991765001386009
H              1.6581675732609167              2.2965617023257376              2.2974941579519235
H              2.4899402178399397              3.9837828270178264              -0.19920933457029488
H              2.067371077453347              4.024984364341527              0.42147564008946564
