72

H              1.6629272419718093              1.538990308826214              -0.3138418379470948
H              1.20655836698029              1.1314549136607284              0.14788652453796125
H              -1.482978030760653              -0.4143449870220688              -2.5021175037846097
H              -0.8610813718890867              -0.6900306746485434              -2.379321342810763
H              4.543389910262337              1.650493317211284              0.6578147885370436
H              4.711854286158125              2.449607479596066              0.6549538964539191
H              3.643796324957204              4.319168665880428              3.201654617101285
H              3.8501196161943643              4.62927360842857              2.501631874394134
H              2.0608120527826217              2.0811782475445098              2.321886686471185
H              2.0027325521125086              2.1460989866365607              3.0365878517949705
H              2.2652779347703915              3.7281727560925484              0.42845097924216075
H              1.5868802389097048              4.074878970088523              0.6642733803930926
H              1.5192208277449417              1.8861514489888378              -0.37933205122667546
H              1.3968834107663823              1.2429169775700024              -0.007304382590134185
H              -1.4745765037795169              -0.3978206914497343              -2.267190047612062
H              -0.7638726964619467              -0.6669943890213682              -2.1381043986532724
H              4.019600099510808              1.7512698706063141              0.5587036664632848
H              4.385393461737794              2.3851385154836464              0.7100698485281793
H              3.743009550516424              3.9079210614145468              2.9821631624846745
H              4.068946716075109              4.515145552608062              2.674625887529254
H              1.8151401293737053              1.7552589282080824              2.586013448195695
H              2.0517445069725087              2.1148325609234697              3.238915367477561
H              1.9926882886771127              4.00263707137671              0.42445055786060115
H              1.4529663210086752              3.9778488956712863              0.935366229793573
H              1.6529878328386765              1.3704698816665706              -0.2265917707032247
H              1.4783061374420672              1.1943432086454255              0.4849399281803479
H              -1.5663591204277802              -0.25937111190262363              -2.0393222955080557
H              -0.9977057783323477              -0.6825309646452652              -1.9345221818318243
H              4.030073714590253              1.7288848331164022              0.6929020477855983
H              4.275181297392941              2.3738101530547113              1.063428408999769
H              3.7823714211048345              3.917703775629057              2.927922275319292
H              4.1579361908383055              4.446198822406199              2.5114460671618097
H              1.8659193740789977              1.8073418431676285              2.514724640990738
H              2.0766260882727474              1.7530478903723048              3.2600870662009753
H              1.9290069035359283              3.941630518835886              0.5214488771179037
H              1.654172263789792              4.273703378849787              1.1367488925446843
H              1.6428893772819793              1.446173922492924              -0.1795624598750277
H              1.4087081104503847              1.1022730376674421              0.4201238173905986
H              -1.7308502069761293              -0.366679777288283              -2.286338714687976
H              -1.1360724580469181              -0.40662453525595244              -1.9650597875369755
H              4.17391590108863              1.6383697958126981              0.5984714386663401
H              4.610435917358465              2.335712187352213              0.6541976457071773
H              3.474696158604354              4.138270793392009              2.9548043395111496
H              3.976825996075428              4.3363911856937225              2.498504916646972
H              1.8664705673558513              1.9769105793953448              2.3010864396324573
H              1.9128294367154666              1.7033534540108621              3.116778642351837
H              1.9678143946130597              3.855618776375685              0.3213431005595966
H              1.6867968866306737              4.326249418831315              0.8886014612059026
H              1.8648209827341442              1.4052540762573593              0.08297663219994987
H              1.2802880608841005              1.0104937392674527              0.21333156435508435
H              -1.5802833146755333              -0.3697266131813162              -2.5068554462504027
H              -0.9051455133483565              -0.34588796890311774              -2.039396699041081
H              3.7577233182785474              1.8398636627919729              0.7626928889430393
H              4.495664559314594              2.081594499395177              0.637995116163185
H              3.511349392855573              4.06727410749106              3.0707088592530356
H              3.955812682706191              4.540998758043809              2.781905207814441
H              1.9416027852001794              2.108740551965781              2.2836474935793407
H              2.20840820693709              1.765167767300718              2.886529653620301
H              1.9056459180190823              3.8724236952697098              0.16739724040726367
H              1.7346531199081805              4.19832039397211              0.7628256268592853
H              1.7464921382395229              1.3051856580036605              -0.1634500708858193
H              1.2470487605730354              1.2436188085963074              0.3853317198672734
H              -1.3841800772539652              -0.5283313251736562              -2.396188777969428
H              -0.6198373821279964              -0.3924342932996753              -2.0742801338239047
H              4.264525743602763              1.7159403142613723              0.7427248724538466
H              4.559467017326333              2.387367688102037              0.743723946553166
H              3.668750394782672              4.33325989152951              3.15081556400542
H              3.864432411416247              4.570918193327925              2.484478679181755
H              1.6693438627058654              2.1407743676807898              2.556472022879329
H              2.2727246614254994              1.833689491806065              2.842752779629056
H              2.181717920649643              3.838194024412168              0.1909651821380602
H              1.7650926319049738              4.041954675007633              0.7970988120466811
