72

H              2.113944513698559              1.526784240375335              0.9417924644452602
H              1.773292830279582              2.0990406205096948              1.230446057985665
H              -0.19429121051571224              -1.1473718289446309              -1.6651252092988733
H              -0.9938852471211379              -1.1374674052487517              -1.6263397421502115
H              4.760902409505204              2.105462994950937              1.0908172145635435
H              5.059090078360702              2.7708957568539634              1.0652965656379991
H              4.4024438368211305              4.954467303633093              2.5442787223536123
H              4.477869480989355              4.742322095606678              3.28608554368233
H              2.389151046086405              2.005212508417456              3.74975217926631
H              2.8127272559801653              2.458224509820773              3.3168414796017522
H              3.053209910035076              4.37791371878277              0.42502282837946787
H              2.8263559704475822              3.7311284406382215              0.7012282827398163
H              2.3719558672211156              1.8554780659320755              1.1386629798736734
H              1.7702636598947767              1.7722519317038687              0.7443594913185227
H              -0.390781270567343              -1.0288338308677503              -1.8351445808859732
H              -1.0211432690996238              -1.4134736599715467              -1.8481974472322467
H              4.717651805060979              2.1199761135172026              1.304821269502808
H              4.95879698560257              2.8457851366927955              0.9469734626689036
H              4.245683968453777              5.077784779319208              2.4053754023927154
H              4.083533205405622              4.6855686085571335              3.0602172514062755
H              2.5033641805749163              2.2758230168830553              4.081865298508512
H              2.798205749271864              2.348207894630789              3.3211135777888927
H              2.8459803848146032              4.21372909957069              0.15690169889443567
H              3.01485241942634              3.792031063111307              0.7110876900520959
H              2.518454142814068              1.4846482069973537              1.0743917744428084
H              1.8912559154873134              1.6327137179926343              0.6511697671181218
H              -0.12873974895902715              -0.9029621306278263              -2.15995904587176
H              -0.709394547681542              -1.4359306723249161              -2.122358827200146
H              4.7453751296311175              2.1286925000513093              1.423515387705984
H              5.15005854870982              2.7894820256158237              1.3205740377347706
H              3.9353265207843178              5.156872506594627              2.4261481795028614
H              4.149063741323755              4.587817814533863              2.836352227171662
H              2.472421879043692              2.319140162709873              3.6541533714593366
H              3.108983468062533              1.9324249318897941              3.240775796233501
H              2.6659866384800956              4.218959721295607              0.3098530643626936
H              2.7508078126919915              3.5228168999497083              0.5376713487462128
H              2.3182966083164667              1.4135415182328899              1.1042355431377664
H              2.0160398045829635              2.085865925945261              0.9828085084529352
H              0.24830928621977968              -1.05044345698646              -1.8686161667043837
H              -0.42867441790075567              -1.4957704780287244              -2.1138851749580865
H              4.707236608509228              2.252738859220174              1.1157415658529173
H              5.120726301974047              2.836781350888487              1.1282972102708906
H              3.946175286835007              4.705126652894448              2.556967380140465
H              4.449623878741942              4.583391207639236              3.0603145206564797
H              2.6347261678102587              2.276089613232497              3.4542747978339388
H              3.2928470839517785              1.9890307053810299              3.1144880091192086
H              2.846222028271252              4.5863578615953555              0.38701286073065805
H              2.599813027440308              3.8312248193106897              0.32310201196796406
H              2.247688615879246              1.5365881270615374              0.9250799917424057
H              1.778619504580955              2.1420697514744163              1.1395515326639445
H              -0.09074318744536768              -1.3087319681409517              -1.7046652333243615
H              -0.6081165716010395              -1.3337733330457047              -2.102750337935591
H              4.8643112387063905              2.0166251950769745              1.0997504348357032
H              5.027914741520305              2.657519124186115              1.362700014998736
H              4.163666464764497              4.754723865726601              2.571614822196768
H              4.425806517673713              4.483009120597796              3.2501387635721177
H              2.691529067886117              2.2575007695153104              3.5441751344630363
H              3.035477185326559              1.5188147523114461              3.462168590696055
H              2.7605719401959354              4.506471368726871              0.229901918835179
H              2.975171663521412              3.8164297502430173              0.2560659508185572
H              2.3767493323026914              1.5805618269165571              1.1459897305579945
H              1.8708990687314888              2.103259588433185              1.002180200492546
H              -0.10335502742271932              -1.3506804360876787              -1.8223006172919434
H              -0.8461161467395577              -1.242860102826971              -1.8703266308878344
H              4.894489280721299              2.0251027475088206              1.1057055719338933
H              5.068953341014996              2.719883728865455              1.5141865795430876
H              4.61597161284195              4.814101089661791              2.5811652422836358
H              4.419442727091014              4.5900503682297416              3.2485616900820924
H              2.3623516627916428              1.8814178507719201              3.8023035321503755
H              2.967156800847385              1.8043190178773356              3.3393520963245447
H              3.0034262585699523              4.471136148391454              0.27601424332436547
H              2.904481934800236              3.819871935226086              0.4583388622095072
