72

H              1.72730164583524              1.187218924124089              -0.5351178702000302
H              1.288888775055483              1.2924802282508234              0.0639218877615362
H              -1.8060859036799228              -0.8035979677201637              -2.3942274759751707
H              -1.3965226528236327              -0.8565313202085962              -1.8702149376416837
H              3.9849667648233718              1.767914068505954              0.9084625108749205
H              4.58147357246784              2.1078456420527987              0.9751264969826284
H              3.727764445334976              4.256840144263083              3.1056478174401168
H              3.9203098761271              4.150967452301824              2.4301371654011126
H              1.3278182611739027              2.1635228525086494              2.2708009796843522
H              1.8016666328488746              1.831710185661891              2.7851706280538275
H              1.7535604170009556              3.8665814222435015              0.30162056986718266
H              1.4873617262594006              4.112936440057533              0.9886294632297025
H              1.87746864280997              1.0044779223878062              -0.4906937462548808
H              1.4426523905405566              1.2074120753802116              0.028434560794185666
H              -1.6260900609039084              -0.7180581938656703              -2.4688344232056645
H              -1.1665587580968655              -0.6208329904920508              -1.897438163369074
H              3.7052659629851767              1.6981386045461464              0.6814369774204007
H              4.297725770415741              2.136990336951881              0.8505081836328224
H              3.7857624028443713              4.32459262446593              3.2289969225002046
H              3.8721403991023102              4.374313309204281              2.470897483137931
H              1.5635261753805327              2.289248644960002              2.4326301152089007
H              1.91879517820822              1.8183310617609636              2.8570801888903112
H              1.5896571040328575              3.5745815368395046              0.15690793988179114
H              1.6061347730220086              3.9721848218930296              0.7428795431266142
H              1.8617649431205159              0.9958001194528251              -0.2586114402101792
H              1.1424477413064027              1.085952515270863              -0.08041296423788562
H              -1.5420624815407173              -0.7920763963698256              -2.559911952000952
H              -1.1063548395829679              -0.88743437229813              -1.9359853145487953
H              4.18349891952064              1.675715500378613              0.7030704986965424
H              4.508630076790714              2.2955242490802155              0.7385482301958146
H              3.9628629414953074              4.682874127298595              3.1000953654849575
H              3.742825383985348              4.321466832395704              2.536570327920748
H              1.6089428164801984              2.287332621778925              2.3713807391567463
H              1.7887625145706805              1.863189290129695              2.9576137921948122
H              2.072885074103113              3.7898356882712116              0.2737556991402906
H              1.5241120195292863              4.183786865483859              0.5952848819081678
H              1.7832362760402716              0.9533758575098076              -0.543776518368543
H              1.1082677760202333              1.2433078104550153              -0.3322783700673943
H              -1.559773807808273              -0.7949842049797565              -2.5431492454332014
H              -1.0536646363303381              -1.06775831492764              -2.25645508694972
H              4.299707872033984              1.640108479018548              0.6781117591676076
H              4.499312096667447              2.32187438475647              0.9977762456439077
H              3.943987644279957              4.47158465805112              3.2486799358073197
H              3.5836716671884647              4.287132067555648              2.6282012351721296
H              1.3299491487704835              2.4210233498193356              2.5450109755100825
H              1.8020188462935873              1.9753892642801507              2.940224589914374
H              1.9786209637947414              3.688266616945513              0.2376886649893479
H              1.4526265316879585              3.8228332367183766              0.764632013076457
H              1.2929105098921378              1.540866991361901              -0.6775318370060754
H              1.7076783974362029              1.1839030463207085              -0.22152387591959954
H              -1.5684246472997134              -0.6862976473352529              -2.2919074633656153
H              -0.9235841454413631              -1.0655106531313423              -1.989966537793077
H              4.008974128729139              1.7250251932299419              0.8241408793828185
H              4.264509809112694              2.381773764748128              0.6982108312339034
H              4.0323668576153215              4.20722824488369              3.025133744855225
H              4.148687205072309              4.37188558406967              2.396475762470503
H              1.5298624244798855              2.089865305382109              2.6013266252726326
H              1.766710908791931              1.8776424828227471              3.3262172692755363
H              1.7674717492093723              3.805171721243798              0.5254923830585433
H              1.4138912889901292              4.197524334326906              0.9471495546748404
H              1.7812686216488556              1.198785987043321              -0.5146215254579405
H              1.2796612939521972              1.40133916252134              -0.10021163091978663
H              -1.6723619056731893              -0.4761113614887578              -2.166151266082903
H              -1.4330743216568178              -1.106864372121452              -1.7015958916605143
H              3.7989152802986794              1.787886550118689              0.6177824954865103
H              4.022343209200429              2.328695529704418              1.1349597681952106
H              4.085690379934966              4.226791752161167              3.1045980849910797
H              3.915255998793708              4.055705896590578              2.4147213707694757
H              1.8937452510938675              2.2489820621274177              2.7601598827523133
H              1.4564155360321198              1.7005330895176967              2.8070221284404275
H              1.9137515849001936              3.8410846894625585              0.5847439107512967
H              1.3643428880336432              4.117174477232449              0.9840704231508397
