72

H              2.416535849064595              1.563839999645841              1.0098595734533384
H              1.6763883378099045              1.4092458873323992              0.9332886995623502
H              0.6327253206795083              -1.0782247356465897              -2.033035696767392
H              0.4688515517804113              -0.4780664438887085              -1.7181552681093362
H              4.615997661840744              2.2593530592817395              0.8439485300878544
H              5.058173225329908              1.7660557145322962              1.1932171726736176
H              3.500837515895603              4.4473691997854425              2.762719507787495
H              4.199084293378015              4.474463872785364              2.963687351863974
H              2.772782004993399              1.990689172020607              3.4427550759792527
H              3.1425464416011972              2.118321488191152              4.0367092718010795
H              2.530426586949746              4.257508057107393              0.7935659063024888
H              2.8862968734803975              4.169896478751262              0.11035826128730311
H              2.2719459930847483              1.649264802768433              1.06851670382564
H              1.6534892378707957              1.4052440570534566              0.9386729492003898
H              0.8048279092958457              -0.9988140059233621              -1.8205180466809878
H              0.38853256507316947              -0.4366926780334824              -1.4898934668921249
H              4.694104641594459              2.0916425819927387              0.7482812488245267
H              4.716725208876885              2.0067147669550205              1.485363291918748
H              3.744369547132617              4.356519662758593              2.9306111093252327
H              4.399617603164888              4.688590538823487              2.9978850897903055
H              3.4122836554569043              2.343233117574847              3.4322846865843974
H              2.878578092277114              2.168618281945613              3.8632456279759206
H              2.674014974737147              4.301573325116233              0.5389216136651902
H              3.1631414492188186              4.354181383512445              -0.05822757976183936
H              1.9981569700533854              1.477384974897592              1.2645733564245765
H              1.698303702296765              1.6580046728817819              0.6311631036026187
H              0.5699060816483136              -1.1346292662633037              -1.898615844743755
H              0.2595684975549639              -0.5192283345432864              -1.589558592639605
H              4.657670208959187              2.3973961866116285              0.8371500631049978
H              4.810053800062016              1.9441601744085664              1.3192102021863492
H              3.625211202017549              4.720198798439431              2.8734593995944384
H              4.399127563198459              4.791774724249561              3.0540594509207404
H              3.281060308670803              2.219114134480169              3.500526711771857
H              2.8689417846060246              1.736540193918673              3.8776076782488333
H              2.908543460670329              4.301300814978196              0.6855884356463096
H              3.2372453052097643              4.239635504555265              0.032824469682584026
H              2.2875295056352347              1.16909299237154              0.7699868441213586
H              1.8614067544550212              1.7772571885491286              0.8515413070177996
H              0.8894332195875407              -1.1467414288193218              -1.8881694705554817
H              0.1407103238189364              -1.0296258492656796              -1.6179167359227482
H              4.760173711933005              2.210519073583423              0.6997153799024319
H              4.947650562635798              2.2857919064648553              1.4802295824981058
H              3.6091015774296515              4.556454575705481              2.8500867185671677
H              4.317927084791857              4.674397937757462              3.0683932987980027
H              2.7501119602732036              2.4035372120249088              3.5533878726617063
H              2.555656788956892              2.0989782143297977              4.207087281822585
H              3.106374223934125              4.216265793514136              0.7370357095990325
H              3.060494533278445              3.9026735213214687              0.10813177146897553
H              2.479765886684946              1.5606275143454904              0.9690594992436484
H              1.8344847106044953              1.3948409944196067              0.7167882336309567
H              0.6378327396166094              -1.1227856261084521              -1.7978262585068479
H              -0.1132965505702777              -0.9873525712439948              -1.8362728322318753
H              4.7748062219832015              2.5319268131080013              0.8090052606037653
H              5.068083816290284              2.307137083116806              1.4646383513418066
H              3.8470242194567668              4.42430809330049              2.6000115322194493
H              4.25646104076113              4.847802248366758              3.0022504332209707
H              2.611632752244324              2.566171639623122              3.5534716222428395
H              2.906350743268418              2.395175640063948              4.182316148498011
H              2.6223772034783726              4.018583207198581              0.7980877783049085
H              3.136302010815296              4.010597055771755              0.27805622056303475
H              2.6187249528548895              1.3566526280605937              1.1003037043553685
H              1.9897433576269847              1.2117786141058633              0.7070154869197324
H              0.45970593563582063              -1.0946952193347597              -2.1496534494478863
H              -0.036163301378413504              -0.7146691180955814              -1.704257590891196
H              4.460370242221481              2.4954648624038063              0.510389219387993
H              4.830831121735792              2.1838314543810617              1.1390968599679068
H              3.624947074867361              4.2379681335506625              2.5859573511844665
H              3.998074710477772              4.770416364919195              3.0658865191756504
H              2.9509855651736987              2.428756044844072              3.4122843356190056
H              2.916843606207193              2.1408654069589916              4.0392496077646065
H              2.424030437695749              4.098593998939718              0.6543772255944473
H              2.8903436352311584              3.961117346610157              0.1423355825705026
