72

H              2.561125634124107              1.4599671565318975              0.6367042179669685
H              1.8428133085997187              1.6700378816366133              0.666212380788994
H              -0.07438735290120561              -0.4573723743064788              -2.0377040629714434
H              0.3082508021742602              0.2306243386644298              -2.362231406711463
H              4.920460191909807              2.241430793559253              1.3945815608758216
H              4.7225386127282345              2.628479694966396              0.8210510899078953
H              4.392832676023338              4.580427227668673              2.9488458050950213
H              3.8480285022477485              4.2350431968384585              3.406709049459173
H              3.040224614220601              1.6268592691323949              3.311618225939764
H              3.193866574877731              2.274537190871938              2.834229610504355
H              3.1799849761917085              4.558993520520231              0.05324221977529201
H              2.655852101824651              4.29663189381538              0.5928171983137295
H              2.3179490553781203              1.8123808725018022              0.4515546150422018
H              2.100594147289632              1.7946217234966932              1.2313217608388838
H              -0.19669577770665037              -0.26285002411091885              -1.8035589800101102
H              0.10094022138016094              0.03947487288000776              -2.338612424800988
H              5.482111848972612              2.313469233144016              1.0729801470925353
H              4.991348824600274              2.4874700895312793              0.5973863485620642
H              4.476218173371818              4.762002677085037              2.9289415469129736
H              4.172157147068161              4.091517919375369              3.043099013542422
H              3.0038026406720655              1.797467807819238              3.4335214678871493
H              3.204228790504942              2.037453864464963              2.7444481116545743
H              3.1534117659784315              4.469484568512221              0.23316496501767714
H              2.590070417431624              4.543841527473064              0.6854089138838687
H              2.406071143536112              1.8465030905163253              0.44029458527566334
H              1.92183301841611              2.0269867382151543              0.920856794163374
H              -0.49292453764923005              -0.09070314584544405              -1.7688157746317617
H              -0.13607516465779954              0.1983679690185645              -2.2704507701968395
H              5.094369474962605              2.151830371665638              0.8913094781622911
H              4.794580108729661              2.434851437678597              0.31252475257490725
H              4.108089865736519              4.5223087844426315              3.0021677691834627
H              4.10144074448511              3.8903485360057326              3.348585224452883
H              2.894616741638544              1.8094396329339537              3.399317366927197
H              3.5562659198457265              1.8932190574414491              3.0906148498767276
H              2.797790574815492              4.315105659134262              0.004877053215932468
H              2.511075929261274              4.423043528392963              0.6746322709297681
H              2.28704764965426              1.8333477191925203              0.49789203480846594
H              1.8226374259265532              2.2723232315914466              0.8226993685836532
H              -0.15790859706565194              -0.15464250103887223              -1.655635700058708
H              -0.039591081786339806              0.29477939048925506              -2.322348652637325
H              4.938377360448862              2.219482475442937              1.3407881918401106
H              4.570144818437157              2.3042214279936295              0.6276730935271582
H              4.2508606972753755              4.477480160159538              3.1199277852466096
H              4.021570663916709              3.842322248258984              2.974764323677089
H              3.2887652925139625              1.1656938812523505              3.4442345126366822
H              3.165749534427884              1.9159462080916325              3.385588124848291
H              2.8047741658544894              4.299986162618533              0.1368087356275476
H              2.656662249030782              4.751815467449169              0.7095240134038099
H              2.1338603987514504              1.9663969977067421              0.44120591288898314
H              1.73196691818863              1.7730910106336095              1.0087535979824864
H              -0.013071227921289908              -0.07512690637374421              -1.7991103293693251
H              0.09032721872040396              0.5275544562281727              -2.151210016277034
H              5.103286393643853              2.3344939781494434              1.0590939137398718
H              4.487159968640003              2.397380359401662              0.8574895051417261
H              4.218712342848772              4.722002782705194              3.036734740096067
H              4.002904072128697              4.0405723165621295              2.8959358705996032
H              3.251021472626278              1.395832573072451              3.1857168748137648
H              3.4336613383083625              2.1392295458348483              3.18973724760639
H              3.0126031236153663              4.260321970808183              0.14649450860977994
H              2.8138465881758297              4.671230950989978              0.7078387853499825
H              2.263539003443913              2.0905013904533125              0.4373709670413845
H              1.5928876636784868              1.8869933483327719              0.6816633740633984
H              -0.16574505609807294              -0.2525403245493169              -2.201222828145633
H              0.17951644476356418              0.3644824201369837              -2.1925987444856228
H              5.191263121563557              2.5007510988954325              1.1319248647570075
H              4.690100391647253              2.360493124457923              0.5543095318479037
H              4.064709058352033              4.8238255958341485              2.8528221942293754
H              4.037377461532094              4.2009048787066785              3.202267105592736
H              3.2281492337507873              1.524522752982015              3.1686109484067786
H              3.457301787558677              2.1536774193599046              3.02580822184697
H              3.2522696915872573              4.344080545605065              0.11461922438124625
H              2.766221816709529              4.617456776282026              0.6617256206178139
