72

H              2.469319337466006              1.464517226749467              0.7165329794232487
H              1.8114031173133958              1.614147081674961              0.6498712841185599
H              0.03409233091081518              -0.37604762537895375              -2.0158246723402695
H              0.3833268497634077              0.25646729241600774              -2.3551231007342026
H              4.960698893980673              2.2233226514652062              1.3286910673479027
H              4.8341963944835005              2.676380499367182              0.7661207733554621
H              4.461548825255985              4.575946855137856              2.961991909112293
H              3.883940380112662              4.259500450990292              3.300451078306964
H              3.1666778903909196              1.5979015977923554              3.2808058166582534
H              3.204219403323887              2.2021906869945105              2.9063553291025825
H              3.089403299644664              4.582530177304767              0.11387351283284355
H              2.6827272890618183              4.348496200758474              0.7074434260944527
H              2.294363954474938              1.7822736789542422              0.5472952388021867
H              2.131252502236408              1.8294677764366323              1.2353989371102403
H              -0.17542674554912316              -0.28424754355415177              -1.717014416481624
H              0.19683585182776622              0.06819198822200993              -2.3562928514882056
H              5.494815334422401              2.3164244817058464              1.101423864448839
H              4.958950075988026              2.525254126609424              0.6348664366902176
H              4.52188791096425              4.643544577120852              2.9388668458628517
H              4.112315179849919              4.052963244745113              3.088942087804816
H              3.1114116720390532              1.791400409090906              3.400845589006723
H              3.189946865308848              2.1413561679929223              2.698445482598616
H              3.230417497301114              4.408234531575892              0.2125144542098399
H              2.607883238345048              4.52243453062035              0.6588916614658697
H              2.420814399012506              1.7961798235534185              0.5021388809721444
H              1.9025726948771562              2.0385749525448245              0.9481422136747893
H              -0.47654497913753463              -0.12430799466892616              -1.7246446666909905
H              -0.05887269294722597              0.2064855970369714              -2.2997219750087057
H              5.107719009462563              2.223218898005083              1.0199365639509503
H              4.86664796973866              2.3789472745785045              0.33880840861667605
H              4.135832439536556              4.488400685428664              2.996449317807279
H              4.091837335260872              3.8133200906227787              3.3701082316062037
H              2.9099515629645674              1.797326902004528              3.3554011357055433
H              3.5399879318856136              1.8939170151072544              3.095159945410107
H              2.8867972469661383              4.269909524828978              0.011777499888032303
H              2.5472229929270322              4.352812487055692              0.7006932386243673
H              2.2912497827296336              1.8193889791797229              0.5267870997025367
H              1.7817085880011336              2.31586958511431              0.8753184444607731
H              -0.0896271781309242              -0.1458631804933173              -1.636743983420548
H              -0.050757483482105396              0.2663309552542465              -2.1637606937368044
H              4.941052771953258              2.237662826624875              1.2135265995704034
H              4.666226865208678              2.2439581778566935              0.6225441228041124
H              4.222388994131546              4.519622604011881              3.1715522203232323
H              4.082660104262932              3.7803322538375745              2.9187579014393394
H              3.266432548012874              1.254685446456184              3.527081241959451
H              3.1861101490685995              1.946594427606015              3.3338326888638665
H              2.763757632781201              4.343936750625453              0.13669570835042338
H              2.7372868529155885              4.715370172561845              0.7710417357786932
H              2.1725361636833607              1.9114960774955434              0.4615130677373207
H              1.6346425186558144              1.8439404045400152              0.9463547679708013
H              -0.10240176611240911              -0.19331724747761903              -1.8084243524321268
H              0.018234240103197318              0.5117599469202676              -2.192466818909372
H              5.2030335877922225              2.3021961654883083              1.167266536318726
H              4.45816593898113              2.3705358206026013              0.9322161837943238
H              4.1516331322192315              4.814267810965252              3.047998458396309
H              3.9880478084747737              4.047814060551844              2.9212354483103127
H              3.2263582936883366              1.4650921451167682              3.119435466711741
H              3.480600109752525              2.1873512673963877              3.1716326696745774
H              3.0451971433315888              4.242268813691126              0.17074703264923854
H              2.770579675488935              4.806629266304682              0.6187429210989901
H              2.2731357204439466              2.1208585223479424              0.32255038653586426
H              1.7135632885512173              1.8026406348846853              0.6664650924587739
H              -0.08152390510428006              -0.31474886535866625              -2.3090879683098344
H              0.13668142930406263              0.386843004599166              -2.254708797784019
H              5.2116071186151665              2.5500561491212945              1.1135787184217543
H              4.660463277569081              2.3388241710183855              0.6847570239286872
H              4.007111767454927              4.912331151602989              2.8629796662840596
H              4.037610001610738              4.198979513980793              3.0711688362260214
H              3.159950080535502              1.4020460446979484              3.23591024574334
H              3.4626755316101288              2.1698421594304853              2.9568675505341044
H              3.264636155302758              4.281644017588256              0.2137494266000725
H              2.727744805106022              4.630843489754186              0.602347394928924
