72

H              2.432516331580322              1.3225645804551092              1.0601352280425236
H              2.0016652779880113              1.752611250571092              0.5659989532420666
H              -0.3373061624666219              -1.2502171587197435              -1.9589700893217046
H              -0.5675150168445756              -1.7735213605917066              -2.360492416625143
H              4.972061105549847              2.256645822628955              1.6305492290801036
H              5.197246568072912              2.6554471588410515              1.0793325646454248
H              4.194625068230598              4.8126794115421925              2.760938037145536
H              4.140249717459626              4.1102962669000735              2.9136361187425384
H              2.737605066012955              2.1410119608624014              3.680014094074868
H              3.0373834562630715              1.6856738643232991              3.028075850749731
H              3.02575020118119              4.4625486137392985              0.011784146113821599
H              2.743037206827042              3.97945723572078              0.4683551448686847
H              2.064764456128472              1.3445245012218268              1.0118738375016743
H              2.2190100388699125              2.0558613313941545              0.8700408315209733
H              -0.37580471134603344              -1.3445329541880748              -1.692045062503758
H              -0.8015491867204848              -1.487811163370989              -2.297654622168341
H              4.9048293923819815              2.2683162249853224              1.5052080702552098
H              5.172103725138455              2.908763288657302              1.3520498775493723
H              4.516504937828738              4.678285283586644              2.5430025595529866
H              4.642766235801057              4.320477345067222              3.1466114526009012
H              2.5935834131728703              1.981835736199162              3.6759569838396606
H              3.1969346408592756              2.0090032586708233              3.1784383421624023
H              2.8963470689133777              4.603524504069482              0.3710096190253663
H              2.753774143664778              3.896132092180572              0.37787466526720564
H              2.3136773040772503              1.3717181027283836              0.8594297791667223
H              1.878516049355661              1.7960744761108776              1.2559117333591558
H              -0.6538886105171395              -1.2908472826340252              -1.6617575271436493
H              -1.2197552776915375              -1.4232306454929584              -2.0683067097146832
H              4.738306039418707              2.1969224940976733              1.0265477905390945
H              4.97546458524419              2.8618003798301137              1.030202834001345
H              4.624336357829072              4.7692834312171986              2.6073512404807673
H              4.517178171571454              4.4162304838204625              3.2466707699901867
H              2.9097308856692763              1.6655527350909103              3.8159128544359517
H              2.8256868620913225              2.041669696208903              3.1521164043626237
H              2.946776241955372              4.652656612116438              0.25457909021020364
H              2.781962518123266              3.9564059495167108              0.40208975734963587
H              2.2337195108187546              1.613238314239693              0.6852372182825165
H              1.6810551890218264              1.761907048007423              1.152482868089128
H              -0.6236894115618903              -1.16505988556343              -1.7506920420922336
H              -1.1970197250666255              -1.301785417054002              -2.059093929393504
H              4.885727275631634              2.133449584985491              1.514431025771161
H              5.2589422946092625              2.6236917092400613              0.9693998291030498
H              4.524041696266774              5.036518543530895              2.7358250505449293
H              4.328152570177985              4.370013393608522              2.9797023316932765
H              2.5953639850707724              1.6899433980328222              3.957552977002759
H              2.754606397583867              2.122010267327455              3.2235588036501124
H              2.9620619872933625              4.408649006301188              0.5283772429165059
H              3.037766672101969              3.7549932460928543              0.4228962697136679
H              2.282462987500931              1.325279778897111              0.9663911808522653
H              1.772296964169165              1.8540013546591896              0.7516577790667753
H              -0.4647210144378679              -0.889871372110713              -1.6985789906735689
H              -1.0417756545383825              -1.3911192971351825              -1.9932090287558053
H              4.802738145647804              2.3722612692336233              1.5237715535496212
H              4.99247885287046              2.817577651294299              0.9687549434808138
H              4.458589088027518              4.946880775471525              2.4449607120418957
H              4.47372449044716              4.492098964450194              3.020607279170942
H              2.771024165587011              2.055515698040987              3.8201649363137284
H              3.0458841532197134              2.561557394112026              3.321094614790968
H              3.173542145620724              4.485491575688297              0.611402683385251
H              2.732904696026151              3.9886857553608754              0.2609898450679014
H              2.3559367590313807              1.340951675155611              0.8508894085534481
H              1.71021476324742              1.7255477020095042              0.8139248187863731
H              -0.5206167458927927              -0.9561130885905369              -1.8825419597077333
H              -1.0160102203038592              -1.4613895747058792              -2.193469877962089
H              4.60869970072715              2.3259093298734257              1.3425970161779557
H              5.132901307683368              2.739816600349286              1.0403733926358554
H              4.006634665046722              5.110545297798692              2.5661515784977365
H              4.337697950830534              4.454226583818005              2.7435580795016774
H              2.9936006485702915              1.8472725411926605              3.706646929969688
H              3.1732926437072986              2.1022822044467433              2.9830754717879384
H              3.092971782991327              4.497013733610449              0.29379324309155674
H              2.595877476537718              3.95913928084687              0.5226864495618105
