72

H              0.8512366186907725              0.9803221069066806              -0.45644315686299086
H              1.4917540869244734              0.8074436600712886              -0.5551103780865364
H              -1.2529781411275283              -1.9835766377213313              -2.462956845558361
H              -1.6138255297813677              -2.350424252026154              -1.8484852979223931
H              3.4831024857046895              1.1627368223328178              1.2035306290147967
H              4.2078137622638225              1.4471258089626404              1.2204121736211604
H              3.821134900007448              4.1240211557288              2.424581033785494
H              3.7745423585320506              3.9984379808800146              3.1652288112881553
H              1.3660671535142965              2.085566543017038              2.800827806771177
H              2.005595579648087              2.21664391589387              2.408790846631197
H              2.5042111626134096              4.004232688581651              0.28528643856531494
H              1.8708178227461303              4.046105948735894              0.6630114139945706
H              0.8691300808034611              0.7776325499788864              -0.6799399602247345
H              1.2060235746103338              1.1789455966446076              -0.22358019727067657
H              -1.5297026282809525              -1.837697231597851              -2.31083795807554
H              -1.7173997349904453              -2.379109925604028              -1.8075078638933293
H              3.6186885571026273              0.9859514814902413              1.131663158365187
H              4.026024363712799              1.6683797029647116              1.0984745732480594
H              3.6376230090635207              4.276221368615901              2.44315542587839
H              4.174819447655868              4.2536224484983265              2.957683943804517
H              1.6821977516012954              2.081311539826842              3.028836238239073
H              1.605678258868521              1.9857818092145454              2.307640557364263
H              2.4769845126647088              4.2073684433630465              0.6674056784647571
H              1.718696171127116              4.088229151348914              0.4732631797340858
H              0.8751650065381577              1.068398382433358              -0.3801153576081012
H              1.4901326774193293              0.6871992945001316              -0.45038223964894913
H              -1.66108427076273              -1.8122857481075323              -2.3708136085375573
H              -2.039039930237522              -2.1711330411428307              -1.8448108251618096
H              3.5154518272332838              1.084831691716125              1.0768246407566475
H              4.057157578938486              1.5738473786014648              0.9141655407454597
H              3.827843567526771              4.3660859857754              2.4873831833761053
H              4.116677944679226              3.991077307177019              3.130203430074145
H              1.6344574040296125              1.937615243516601              2.6940019455933837
H              1.8576011096242548              2.294393800828505              2.1778577971110527
H              2.4580356492758284              4.270906907466138              0.408683652844702
H              1.7672820962744147              4.320449291021123              0.7462494072436807
H              0.7007393838700415              1.0815479272140205              -0.09937135087040545
H              1.3176196501125745              0.8794975363861263              -0.40380422203953326
H              -1.2763997916247434              -1.8224197015884818              -2.1895807540020984
H              -1.8095755955875623              -1.9037788544282104              -1.6456660899385829
H              3.9045313279988485              1.0326941915465415              0.9608016863415065
H              4.041548009266332              1.638344891508961              1.2606996630826626
H              4.0520975384417195              3.943507705878579              2.5054318416451533
H              3.9358380046215737              4.0944038767062              3.228758609023689
H              1.205606742400394              1.959526552711823              2.936748713311259
H              1.6213505572646876              2.183460906167071              2.2173835413996037
H              2.3103883649413315              4.3042953348896535              0.1477604705595328
H              1.853366167945743              3.953241069546733              0.5698288366874663
H              0.7332282324073732              0.8354714224453614              -0.3499413956730804
H              1.475842171968691              0.9817266319891746              -0.1103933985661474
H              -1.2617856858353809              -1.8617681354298965              -2.2482774597998594
H              -1.7391882720105467              -1.8793493431874213              -1.783796643287375
H              3.9123529905781496              1.0942337924796124              1.1413931539630289
H              4.263846597828319              1.7423327306918124              0.9840625093950411
H              3.933382967072194              4.059931485812647              2.3769966734054893
H              3.9859226228953446              4.265882205849402              3.1520568746685407
H              1.4498621383465045              2.159328968036563              2.8578372083516754
H              1.9856193956096868              1.9819677342144868              2.4131019354553107
H              2.693744321729955              3.939675544266913              0.1270242209059691
H              1.93477441365955              3.910075317261481              0.18278885479622203
H              0.83542400069716              0.7054686211319583              -0.28140917569319346
H              1.1929979262153987              1.199180830001776              -0.6778920557330836
H              -1.3453028839761996              -2.093826702545107              -2.410459623204657
H              -1.6759902073483737              -1.8465962150545194              -1.8932912392872958
H              3.712146636928693              1.1510776889541376              0.8568666543066771
H              4.167800061030416              1.648620021695746              0.871110639457266
H              3.569528630329402              4.101284035178158              2.4323977535635333
H              3.792123379521757              4.005740629207552              3.156074624303084
H              1.6656678587814955              2.0585442262056994              2.9431926367496817
H              1.737143216413409              2.262296725677619              2.2777173884171487
H              2.629139046521876              4.015746790812082              -0.09727863683360803
H              2.0959776311371705              4.0282409768859875              0.40471796456645825
