72

H              2.2406577182039746              1.2532397305447176              0.8945402675819738
H              1.567488661378638              1.5531130158966024              0.8078986847548654
H              0.3796230881898775              -1.1991476394014569              -1.9277359775950695
H              -0.3644763772979324              -1.1950113827710032              -1.6691907878940946
H              4.991104079646353              1.9809561640336495              0.9749462508559102
H              4.875728973150644              2.5259184614746837              1.385392925531362
H              3.843984771153302              4.722219337201706              2.4884519083088237
H              4.022523529697718              4.729426003529156              3.237587913261891
H              2.6410782207229815              2.6381163755645685              3.859922091760639
H              2.4209194663509455              1.8936124288056009              4.061591943269952
H              2.8701844399614527              4.3423039898555595              0.38169267676813534
H              3.3881127845284955              3.753736378941556              0.30161234050689767
H              2.206070793461964              1.3176960474531796              1.2590824837781125
H              1.8644768639285978              1.4798532932560158              0.6720483277181536
H              0.39285919540815706              -1.167847770659915              -1.9498374117936899
H              -0.30240254856723287              -1.1277395552424              -1.7632675124798058
H              4.919285098354752              2.3714750987311386              0.7115606417103796
H              5.222149847069138              2.6086159837051524              1.3840265936792286
H              3.968813252041894              4.599863144030081              2.35589988145208
H              4.091205609578306              4.913266189180225              3.0378313028689368
H              2.279125299942989              2.480834462373805              3.6582582089103113
H              2.848880060711065              2.5352346470044385              4.055267868609272
H              2.68548252714473              4.383164325897223              0.6883413921603448
H              3.044738672307093              3.7720431184895555              0.5225242154115407
H              2.3016522872878644              1.3453572175836221              0.7956541234746343
H              1.6815448063661356              1.2226901757526953              1.12010383665822
H              0.32455718349897944              -1.066930422789068              -2.0282578074307533
H              -0.3870813481403578              -0.9953725780024334              -1.6931359745843766
H              4.579145013249946              2.3594210960303923              0.43646902387856557
H              5.063347628258742              2.3776160360681575              1.050124023262392
H              3.5050716394872548              4.459602478287044              2.539690087296251
H              4.028820668400324              4.73903691244387              2.9989265439333375
H              2.529629405099518              2.5919282086623197              3.6218917792557774
H              3.071512822430333              2.4030133098263975              3.9648351717088546
H              2.4389999110961087              4.365780875154344              0.4188203488925798
H              2.88778588130852              3.7792541408083244              0.41644727852571023
H              2.2224835677940376              1.7553100382264575              0.9971118955595104
H              1.7229410256343203              1.2304346752295776              0.9622010933804015
H              0.4641091691380795              -1.2089905087869741              -2.2317811381170305
H              -0.10257913745144227              -0.7394932085105504              -1.7908350315089405
H              4.6688422182545              2.0474274434409145              0.7294114496867081
H              5.129579562442027              2.236669012028817              1.4584417879877694
H              3.58832217711589              4.563376935311616              2.435598962176084
H              3.9888907619874137              4.58247196889219              3.034717196323561
H              2.624590743809236              2.243838629842132              3.6602310969864305
H              3.1764592840700634              1.880571416167291              3.92688913994902
H              2.487779742144164              4.4727748492130095              0.4069350094271
H              3.057981597165643              3.9559041074212264              0.24417771274342015
H              2.1251027007042085              1.354348964208633              1.2579187761912505
H              1.5177275223678366              1.4795027811532013              0.9676557750656289
H              0.6387012161787771              -1.0168349800888332              -1.903485385886553
H              0.21292381526254028              -0.6414073943500608              -1.5600676916799858
H              4.886398327100293              2.031955666825308              0.719232377341693
H              4.912615886238197              2.1536235521851843              1.419704810429955
H              3.727565895665729              4.44033843932054              2.806797072044648
H              4.361293350967635              4.705192327161907              3.0367304058168916
H              3.005921737866158              2.3906620137649237              3.266976111585693
H              3.039648914036248              2.0264467106364643              3.8525184047422263
H              2.779712733834065              4.714156791561711              0.4140743555241209
H              2.9611356017112307              4.054690958037798              0.16997907743521762
H              1.9342822646519051              1.5737080628109263              1.2807332285830604
H              1.4778316228111528              2.0123333546466595              0.8141502551949185
H              0.4319732006188194              -1.19578962521932              -1.6974393388018076
H              -0.10381488850430051              -0.8319449813526973              -1.5074511104820036
H              4.7125448556311              2.250050668900148              0.6022659006588917
H              5.0222014750069315              2.1438267689150754              1.2732222584446469
H              3.6993362864459733              4.596371521530376              2.7834256436593017
H              4.417029839176281              4.809654851847007              3.058866583449426
H              2.919310592420102              2.4955553309220115              3.6818591369070415
H              2.930013183913385              1.8334639516258613              3.82153891361292
H              2.9901349472836594              4.69613427660672              0.44381980689999506
H              3.2106002939677563              4.050380113206731              0.4300610062685065
