72

H              2.183124589196335              1.1449749435509946              0.7278348429204327
H              1.8345568337540017              1.665433999130588              1.1295375894391757
H              -0.6891201177845326              -0.9424095474070482              -1.6848583120901632
H              -1.0251771874380875              -1.3251317556272346              -2.3989908673474667
H              4.586779632320221              2.3615140558054626              1.1631912389441095
H              5.14891756697859              2.727788103769688              0.7467451914238541
H              4.281928304751181              4.857101924571781              2.6469308959080844
H              4.6509258335592465              4.521925397637148              3.130512731948349
H              3.097161571149955              1.7681254341020318              3.7284658874107115
H              3.3391667252643393              2.1107167580520447              3.151822975530427
H              2.9360015933644874              4.482848252698515              0.7837762552092572
H              2.625511482562111              4.02846921180608              0.2756648688124044
H              2.2605261466253004              1.4286523384060694              0.7181528913779455
H              1.7104956354549292              1.9197330821004837              0.9818232940349443
H              -0.6144995838064602              -1.261434531385471              -1.7162742144637366
H              -0.9981407482830008              -1.2760584963290773              -2.3010472403356026
H              4.6079422982631675              2.174303348016001              1.2673385035155202
H              5.069806162852522              2.413993634177868              0.8117877371224664
H              4.209364241374396              4.897116523014629              2.780627072786084
H              4.397939368511203              4.176110583648465              3.0192863935160448
H              3.4054043928820286              1.6721652858869107              3.6778409914267485
H              3.087693506838973              1.6160661772062277              3.06070995377457
H              3.228533080458926              4.718150976293052              0.6023052284664413
H              2.985460266603291              4.062151125800322              0.3006651539736024
H              2.012032318219454              1.3878215135106444              0.6262254647193133
H              1.9714376045765047              2.1004072727786527              0.6888719585260823
H              -0.5401147725748031              -1.2646030448981114              -1.6526562767962731
H              -0.9317413882549586              -1.4010139115200233              -2.175824509807379
H              4.968090913296926              2.1710851200259347              1.8245972823249856
H              5.128907237862866              2.5063640933899287              1.1645133366530367
H              4.479756204488714              4.724619633163878              2.717388992719319
H              4.4894722901333886              4.051340003090747              2.9094218317622396
H              2.9593932602289734              2.000603384188525              3.7732213149494953
H              3.1027268526953016              1.9147699071763493              3.0865222331287216
H              3.3411269950084126              4.571401075828095              0.5835327214445755
H              2.935652459921868              4.042853900546293              0.2790168259089797
H              2.131212060008031              1.2451193235900884              0.8476091743409412
H              2.014527699173359              1.9434737954214332              0.6850955005299859
H              -0.842820495371243              -1.2764596370788905              -1.5945162505522452
H              -1.2147903238163698              -1.6068988498028365              -2.1072545134305796
H              4.944622183863116              2.3998323348615984              1.5738439467335434
H              5.053127845059104              2.9115018180373693              0.9746387187250551
H              4.694722575034046              4.761432953259198              2.5222456267081896
H              4.544528258384235              4.1198281473890255              2.953749765455416
H              3.0795023643592945              1.8140521886339234              3.658253325540947
H              2.856863979660788              2.4819078153161143              3.3657690022578435
H              3.215710670592921              4.793032225588042              0.3340764130675623
H              2.6514827182791514              4.366981954905439              0.3435281199784842
H              2.4439973880938726              1.102418483891742              0.702060578543285
H              1.7234875016293805              1.4152917746880531              0.8410309419383968
H              -1.1470853317258425              -1.2264461526365915              -1.8726792385869766
H              -1.2768271503819817              -1.797634892111833              -2.354401172905382
H              5.238070504631045              2.291642831369748              1.4602858214302161
H              5.197341095608163              2.766289873057792              0.7977921618804237
H              4.417470128072675              4.916291227590317              2.8052772242374218
H              4.183875043966351              4.17529036803553              2.8204448998968723
H              2.734236068137878              1.7890831206657767              3.884543816577468
H              2.668516790326923              2.122788889719745              3.3070537814212826
H              2.93675236070249              4.56022991184581              0.08376000722889428
H              2.598024198096567              3.9621691020138567              0.44240268850548436
H              2.4590501555331303              1.233509580726522              1.0414477075959447
H              1.894000256344847              1.3919653009630721              0.6408893362263345
H              -0.8470862830244371              -1.1080603775866145              -1.9787752763150552
H              -0.961191611925667              -1.7299833425418671              -2.4768952694881747
H              5.11127420533784              2.387476371070489              1.4290913309716655
H              5.395048579909079              2.8018784317940635              0.9499758754812853
H              4.469382946773853              4.88933258682552              2.76611704926642
H              4.36895629737231              4.243393481919665              2.991349811345367
H              2.5914664672060064              1.7303813242199229              3.7412092935211976
H              2.969743560239775              2.342284915792774              3.5796580966677443
H              2.9625543222856434              4.561376234086755              0.39806767511023367
H              2.5355876329738494              3.895791960021791              0.3527604932910404
