72

H              2.3509974723218723              1.4001259586791663              1.0942093455384796
H              1.9800694956435616              1.958267609942142              0.676431407868429
H              1.0643481799827075              -1.027900645130422              -1.748486869699418
H              0.4643062070802205              -0.7141103656751874              -1.6426229469089817
H              4.84307836102862              2.6287691758981855              0.8508852762030188
H              5.002445397736662              1.997303493639478              1.2756948473428469
H              3.879249008869646              4.660939953037082              3.1290233286025675
H              4.547146427483829              4.815482840204346              2.9326022693943328
H              3.078878675968955              1.9018987036807087              3.3366150032426583
H              2.7349836163954233              2.1630644899707816              3.9273185976825244
H              3.142921632768745              4.097872430956718              0.8646700191749823
H              2.8923681983758276              4.176430259211828              0.19077030896743882
H              2.6227972533823256              1.4363351016890773              0.7678433940685572
H              1.9810766993977056              1.686822327393139              0.7655205505840894
H              0.7707207681020746              -1.1247031454376564              -1.8643263925630564
H              0.06627675549786155              -0.7237101658417937              -1.8274904388741586
H              4.641859690793816              2.5830697840276517              0.9824453498975956
H              4.9620453878985105              2.042080481478668              1.4055375518211382
H              3.682639374697552              4.581526239812524              3.0084937024416436
H              4.4095331148757095              4.67958458814976              3.0689374938856586
H              3.066560599893013              2.024940571710926              3.3173327624467843
H              2.8423084582961886              2.241110250356873              3.9997668424372868
H              2.8510300685135483              3.7522369190160823              0.7164257684883172
H              2.762145193745904              4.1842381522022265              0.05548759867077455
H              2.8981077889331637              1.449877842861434              1.042351421631906
H              2.178886249861211              1.5864764051504128              0.7352848412985504
H              0.7528657466048186              -1.0409928958427093              -2.093357478469575
H              0.28658773992480424              -0.5342890554567997              -1.8714259321265088
H              4.561734027377468              2.509158546274588              0.9134690410582275
H              4.814272278210795              2.1487864293243857              1.4149344830732473
H              3.763256253536459              4.3193860744848935              2.7581386172656313
H              4.339758654119548              4.79786389512912              3.03223495484604
H              2.968768825145305              1.7832862255993984              3.164036476662068
H              3.0887953649827375              1.999494377701518              3.876492921711255
H              2.5591048969574075              3.8392944378650005              0.728120354239672
H              2.7280180277865167              4.143268737182316              0.07302478184034174
H              2.4739021606119755              1.7529219828114004              1.1675419658429773
H              1.819200395161641              1.462696527658279              0.8266737265040032
H              0.8105206799700162              -0.8906554591947426              -1.7878946200823196
H              0.6889706943169471              -0.1446692757327141              -1.6570860835251815
H              4.726619905199531              2.441108857829173              1.0377375607427108
H              4.735916880303954              1.6932357059534422              0.8962771023399422
H              3.7643845789460086              4.409444986665056              3.1841240670584647
H              4.396841945476047              4.6299929401826              2.798478016004242
H              3.2733056417939292              1.7694364687467228              3.149567532658942
H              3.1403535954769204              2.1274397839145216              3.765273593432846
H              2.354224928300602              4.0073739854976465              0.693113835617495
H              2.785630165952575              4.355314922439753              0.19922166679684036
H              2.3947839889280305              1.808492098370307              1.0655324392369727
H              1.6785929702408386              1.8407991566364164              0.776371739726818
H              0.8321624276557505              -0.9786342630291677              -1.7936368612038274
H              0.6252332046184667              -0.22279143582906624              -1.5762193995966203
H              4.522744156340448              2.287954930948142              0.8921716351415817
H              4.6836360004477715              1.7999765032696113              1.4411895530198222
H              3.7506704096661077              4.611363584533809              3.097888210693624
H              4.4694260508802115              4.619742786008361              2.9860927215661923
H              3.660995387814164              1.864375493253083              3.5052213162402386
H              2.933196243122156              1.8696026539418282              3.595959446443415
H              2.7627253881744225              4.013736111579767              0.4599905602889453
H              3.0278877925750813              4.4963962710539445              -0.01850860453853532
H              2.326952604957705              1.4162245860801035              1.083390271221057
H              1.7128680327427348              1.601800326457002              0.6606337108740358
H              0.9377258706816962              -1.0118421215384275              -1.9372677937413594
H              0.562768710002098              -0.30178264299834084              -1.690288117787928
H              4.77802107376421              2.446878727215474              1.0491290875037882
H              4.7099245987155856              1.8753423817042414              1.6851883452027783
H              3.8030916658369525              4.960897441628463              3.0585466841499223
H              4.508832250636187              4.649250205182891              3.1222240902909526
H              3.342386584205146              1.620538718506438              3.2973806735683575
H              2.877981312676888              1.830660774862661              3.7308796434354305
H              3.1445252642361186              3.843967341652835              0.4274544424001098
H              2.946875301576254              4.480478626039907              0.11554587000372447
