72

H              1.2557720608819847              0.8928230010366582              -0.6390375246297593
H              1.1440264580505395              1.2643171949689338              -0.0022279428849978815
H              -1.4185063324740568              -0.7476776012074149              -2.356518042490802
H              -1.0746026463641392              -1.1939873822218785              -2.003225364629047
H              3.887956820668527              1.7943258490718406              0.6259690982868633
H              3.989450046130399              2.3083356178375483              1.0742321423523238
H              4.42077506118877              4.370840412789845              3.0446110988221236
H              3.743531553566581              4.28315041647741              2.670748983012791
H              1.516512126419492              2.535956062721976              2.722023831120725
H              1.6684436749800888              1.802336821393486              2.6625581940129317
H              1.78022797563886              3.631588223613713              0.2779638448011227
H              1.5995773184942659              3.9756329833880724              0.9624002224087761
H              1.5058695125900003              1.0293533698093396              -0.5124965221308603
H              0.943520546452777              1.286577894808086              -0.20346550205892025
H              -1.463660000823703              -0.8761001654451529              -2.24633730130484
H              -1.1525957521587173              -1.327201607851123              -1.789950996304844
H              4.401356620080494              1.6980704824317352              0.7629498655433162
H              4.474366190681653              2.371918723153444              0.8864608384571823
H              4.391054227046972              4.44762722931615              2.8807726584549957
H              3.8387420490391557              3.943627079841452              2.717703933665042
H              1.4651848927378832              2.4299475759515494              2.7628369227097327
H              1.3770030633524952              1.7642218671486307              2.780984159662212
H              2.1570771033663836              3.923293672801368              0.4786294649602449
H              1.539847219193001              4.090872435576464              0.8127025941919298
H              1.495061017377761              1.2770712647524185              -0.5090632135817837
H              0.9827880702411343              1.2050425121593726              -0.02915773768557598
H              -1.611647883479803              -0.9386166849162328              -2.3422106782573597
H              -1.3866979546387062              -1.2211695773128333              -1.6705174076819114
H              3.851287348592255              1.6521850478110223              0.6570850262443436
H              4.320911350052579              2.097107537019243              0.9381452548065851
H              4.039299559424568              4.202409802519543              3.2039997978241965
H              3.824769904125249              3.8497392393914076              2.5877288081630088
H              1.3828846423312329              2.4672095247819996              2.737728190868837
H              1.571651924183695              1.8227061789684151              2.7931670486784723
H              1.937353506903468              3.8322005063526965              0.3409871429791622
H              1.404671634397189              3.9550720530284185              0.8739821134819633
H              1.5423632740172115              1.292272586559715              -0.33436103224581926
H              1.0298480257254086              1.167516693597007              0.23553154070485552
H              -1.6194485487821229              -1.1031210402295517              -2.236941915065086
H              -1.5627432201166782              -1.1800218846473618              -1.6019393108397046
H              3.6026287235323524              1.6572354975892876              0.9889745473974291
H              4.2372324314338465              2.0473525524774336              0.9576555748280215
H              3.90877757245889              4.461763563827848              2.9367734757319925
H              4.020838974042961              3.9590096046549355              2.4466139512833953
H              1.3373601677407694              2.3009819029952974              2.5835065306115417
H              1.7376587208494423              1.7505089445256596              2.8472456081085884
H              1.9629558709458776              3.8583883341325405              0.5832364434744446
H              1.3267715904491761              4.197189254636079              0.873244587730387
H              1.5116173223177842              0.6324942544706298              -0.21851099949391123
H              1.1048849942578851              1.241398375546564              -0.10668279669403521
H              -1.9267890115000825              -1.0292203773535447              -2.620567237694618
H              -1.7138448567538118              -1.2544432664614302              -1.846516263950014
H              3.9057348145486155              1.5518857571807798              0.9256913668290493
H              4.279693021903018              2.096407954594071              1.1794691922431126
H              3.8288588524948537              4.791536702884179              2.830490216479662
H              3.5631326278861652              4.178495494829895              2.620170685017389
H              1.2359407850692505              2.436471910741098              2.4921334772622314
H              1.6576457858875306              1.779259144103989              2.735171722476489
H              1.9925687769746943              3.727688348604091              0.5009513237667278
H              1.3889356112648819              3.9693337458944127              0.7164255076621429
H              0.954977825826006              0.9251795822444878              -0.5459875639514754
H              1.2869120448720721              0.9796338232201245              0.10994449905154745
H              -1.850946439420213              -1.0791787587752846              -2.7802320958558244
H              -1.3013685328841482              -1.1083950791220871              -2.1686492440429506
H              3.964994358978235              1.6285081793388654              0.8612866988848232
H              4.45146027330442              2.150487912999497              0.8032029184302074
H              3.846254156548814              4.708670895663229              3.072955241631039
H              3.7626626723893617              4.430829075609289              2.4073835530997147
H              1.2880942070180665              1.9330662281186255              2.305092916987247
H              1.728476234295903              2.3922762495951106              2.7555808135897477
H              1.6625596207112676              3.7670771203412965              0.25849549804960975
H              1.5791981604720173              4.195260484511719              0.8789915294593129
