72

H              2.2976483424960117              1.6478238425729033              0.9188889295457124
H              1.6727873933760944              1.6441884588974287              1.2812876521007197
H              -0.0003381234089141671              -1.0962131430323414              -1.900618233123271
H              -0.8055014196712611              -1.1269414590638456              -1.728747572946638
H              4.800862291290387              1.8767201303121006              1.103240003042869
H              5.059831614228055              2.588556472273812              0.9763101764702996
H              4.17155284010678              4.893382768632965              2.61629287304132
H              4.1306561217692614              4.6651687223498275              3.3075916551533173
H              2.3059882017270588              2.1741630069392506              3.8146857191507224
H              2.8556967503834585              2.0166536224417486              3.3984933672524233
H              2.871701159288658              4.296068113877738              0.3271999690711648
H              2.9560709977274553              3.614248992514584              0.5539886077490316
H              2.2823402304232374              1.954433116839018              1.3267795538153422
H              1.770986026443287              2.057906882073651              0.7687883788710062
H              0.04292755290765903              -0.9891565989340431              -1.7899420600357223
H              -0.7150481299228668              -0.9873110069428873              -1.7400180265778633
H              4.544607473964114              2.0763332653379174              1.2262004058019675
H              4.98918153360425              2.7158083669047555              1.303216026362621
H              4.107679346219569              4.945419148380247              2.3720945533224786
H              4.415876437295175              4.83936993073113              3.094110222978395
H              2.5356456991118312              2.357022975203675              3.6756434890612746
H              3.1698912210095913              2.2685243365487855              3.339363182683163
H              2.94140634135003              4.434559214535568              0.528277331751003
H              2.9760461513148737              3.6945649942086365              0.6452550986436699
H              2.3900036092779664              1.5468506414774943              1.1000898264479668
H              1.813620365927916              1.8944777399617594              0.7738103294804364
H              -0.036943501700423535              -0.9456433766060611              -1.9792770632649785
H              -0.6223922915482933              -1.3013727232959051              -1.7975981571669684
H              4.587115286655206              2.025394988152881              1.0153990857917765
H              4.825664846747246              2.7044236787065588              1.2253282266818404
H              3.80020972319399              4.986183900119694              2.491060952011349
H              4.242358370378722              4.696300338497118              2.9813700653695063
H              2.8291028540123806              2.4948785859242024              3.6087568529542846
H              3.06643479035161              1.8208217138282186              3.1196472069600194
H              2.9519209179289034              4.340650323626229              0.12850651378225347
H              2.749891690190389              3.808191065611439              0.5786686937889511
H              2.322451125514965              1.6113973034841516              1.017604297423085
H              1.9150466324651798              2.1837078982510136              0.720240254479178
H              0.2032357704255386              -1.2282178313404006              -1.9640266803871562
H              -0.43512132625870314              -1.6102238172573642              -2.0960336785803664
H              5.043523618245434              2.033870986507566              1.358098715470364
H              5.274562833321437              2.7456334268873315              1.341200946686429
H              4.010487534761169              4.948422183944292              2.511218220218601
H              4.215044574790392              4.4257759274927295              3.01235871374177
H              2.4352983539273576              2.297012258112739              3.6928591419795396
H              2.916297428128341              1.7362696716720143              3.3912034775153623
H              2.789739528779214              4.475431127176237              0.20095178645638878
H              2.911349677196984              3.744777752075906              0.44353945296656666
H              2.154037783039145              1.2401673095856467              1.133164376402694
H              2.064356899961782              1.9700582153551285              0.8633551565255733
H              0.042120096662879615              -1.2393458985771824              -1.7055590855178588
H              -0.5655270052901464              -1.5193953704945218              -2.0312322393399143
H              5.090034553513935              2.183490496711064              1.1732451301562885
H              5.053094976410223              2.895692784880945              1.358977298566556
H              4.3955450364665865              4.593766484350514              2.4832616516053236
H              4.429548910572335              4.676436593178027              3.2780918352286728
H              2.318993685590083              2.46740422017817              3.5281390712172804
H              2.963283444411458              2.062067665863217              3.78050403626633
H              2.686235476386366              4.485151544004401              0.2588666442889264
H              2.816184616083951              3.742126395540471              0.23246677240934446
H              2.3355611421151123              1.6071037854190795              1.0595267115607956
H              1.689036180361921              1.729879811415565              1.2948039671031968
H              -0.1872207529108784              -1.3233865544182064              -1.8885336367383883
H              -1.000893200300614              -1.143772709743696              -1.8713577041978147
H              4.732371714009745              2.376440162262415              0.6732150293263894
H              5.168664414471575              2.5645157234750067              1.274806628807385
H              4.293627997269368              4.855332729847146              2.5446737950437863
H              4.368241695822581              4.822206061955429              3.2336074423230023
H              2.412388933613698              1.7281125667249677              3.8318065623499686
H              2.9614635173157917              2.080550340082173              3.4672335726340964
H              2.7395966183717335              4.468447478123538              0.2752089046307147
H              2.8335247952199967              3.7953265045814657              0.6101018736568267
