72

H              2.161780881566886              2.222485514510134              0.2892856687609494
H              1.9497248225499129              2.062867999170342              0.9692669358574058
H              -0.7028376718355799              -0.2869882324457168              -1.8503591379295694
H              -0.19457782809374918              0.2696773742764855              -2.116997766029781
H              5.184943079037719              2.3075715188154002              0.8895552428604351
H              4.616280225409869              2.228423963183552              0.3816096753880686
H              3.934503135389079              4.7645633225221244              2.924825488364269
H              4.228003837714227              4.101312455753588              3.282923089773076
H              2.708926989044371              1.8781428019143585              3.443958869875166
H              3.3804315752221052              1.8572454664494973              3.1667510494207662
H              3.110824911759149              4.301513306240118              -0.002154710305017294
H              2.589409707658066              4.544475015972049              0.5400607011852907
H              2.4317549547517787              1.8882807714431613              0.3112958032949397
H              1.6773714059008489              1.9855783540616168              0.36007914742533653
H              -0.6738049294001235              -0.26903986516020045              -2.1365956667274633
H              -0.28678218136669614              0.23144251075887332              -2.3701495816799154
H              4.600985013641238              2.136694134505927              1.1774109551105827
H              4.455964803020076              2.3884117993128284              0.5559808212036557
H              3.8283975729626527              4.756563491403027              2.8634800061088352
H              4.020359437027819              4.267445440015548              3.4211242612806947
H              2.700544341985623              1.6878185985728649              3.354732336595176
H              3.4436600407256424              1.7497059084774857              3.3689995599878513
H              2.7839635643875678              4.453316811554518              -0.051802493142836706
H              2.450207692064357              4.602300769737639              0.5832560946779652
H              2.284492602134577              1.9450583952248428              0.1786937187570445
H              1.987390982347782              1.7418906960237976              0.7807224237729123
H              -0.24571096426322322              -0.24049771278997212              -1.9633096835113186
H              -0.04964787851790801              0.29804510387537453              -2.553210105661037
H              4.97692914267036              2.2448285984255705              1.0816962955286304
H              4.321915244263415              2.540557879801572              0.8499641342170798
H              4.257700860091636              4.964644601387496              2.814856616858049
H              3.981060177516737              4.246911509549163              2.9327676464923296
H              3.0140421951931695              1.2488722176566684              3.4694881844221284
H              3.092888207281962              1.9127695846042696              3.076467048480344
H              2.9449993622382626              4.499373753071976              0.13123412334266182
H              2.4851946525917508              4.818743772920118              0.6453737863959449
H              2.1965822818584995              1.9490209880267924              0.3568600582749701
H              1.9164856143950653              1.533191915775463              0.8543711140386692
H              -0.4261386327557339              0.0413786232960696              -2.034017371518764
H              0.12709429657185947              0.3838168590968224              -2.491438772422517
H              5.117411106147846              2.2078109214751653              0.780490638401569
H              4.579790298083498              2.6900236656176433              0.5114336103896133
H              4.27168173206973              4.695664745306751              2.7402151363087595
H              3.9962573463304              4.298646273324899              3.2831645472715487
H              3.0629222685362163              1.3587195167754689              3.021882753295004
H              3.422459432366476              2.0715618698104734              3.1498776149584615
H              3.01445902086777              4.49477457490936              0.06550180658682854
H              2.485334078239486              4.478002485912565              0.6243949146390864
H              2.372273378354278              1.869644159647139              0.39227007457438096
H              1.9283710737504136              1.9062498446978164              0.9451186775036555
H              -0.28024817962060955              -0.06339978132972386              -1.83958480754884
H              0.24825737623569052              0.26742461783627736              -2.303289701541942
H              4.712420094601498              2.2227376628601485              0.9437057145470482
H              4.7078401068401465              2.5530504341362636              0.29042694133170016
H              4.401547495092099              4.289956957726108              2.912986527771456
H              3.9815139886222535              4.037224963639943              3.4715325275773523
H              3.199212277043576              1.31021745945396              3.3440361406005383
H              3.1041571175042395              1.9672187760065514              3.181920141608336
H              2.875637918212948              4.620432902780784              0.01614010828180245
H              2.7130062084108766              4.156441603021305              0.593554200698423
H              2.341874795518891              1.5904094492292473              0.618088205453718
H              1.8608172256996707              1.9401898915340412              1.1445726492424044
H              -0.2880864052737047              -0.052212739580831134              -1.530598403329944
H              0.1109795450385431              0.18071334572733877              -2.137226108943531
H              4.794344086453047              2.0681942259147648              1.1167000912692726
H              4.7215339901155              2.5428826620750615              0.6234657422296408
H              4.559977795595687              4.2897455931672175              3.0436247805351
H              3.9672373753444266              4.08780952860742              3.461212414260465
H              3.032751799370539              1.4445429848709475              3.2988576766137028
H              3.146908727805558              2.1519049968445545              3.2680409852351855
H              2.8448157185861116              4.5761513499177              -0.017454703609439414
H              2.8389014543924946              4.234361717376472              0.6343353745965251
