72

H              0.8988504376908821              0.8650379073260697              -0.2711064248363663
H              0.8647167467855109              1.4367481543193092              0.1220859876169103
H              -1.393793785902626              -2.1096144856101193              -2.080022324932871
H              -2.111334105157948              -2.1371064782608995              -1.6761559282316618
H              3.547968168179734              0.9656500227222162              1.1209439102877277
H              4.109052055869369              1.5101947678436187              1.0300104342289984
H              3.6654295067343896              4.021563165094083              2.661487738876988
H              4.322339589483222              4.091956711292829              3.021937877091062
H              1.6252894074657145              1.9128647561164818              2.87330019543372
H              1.7456064303008503              2.2101572456813185              2.169375608541453
H              2.526982312605562              4.069125950446678              0.3467521903309175
H              1.892201816676588              3.984013612000748              0.04603967317136063
H              0.6817526156788597              1.0534048716538895              -0.2878400958887393
H              1.3222478230502697              0.7620579362317723              -0.21937761422371738
H              -1.4503574089972002              -2.2515549535833137              -2.3583775232098256
H              -2.0866755218968684              -2.2401575134993172              -2.050554870086745
H              3.783406329536967              0.91007876771769              1.1759323793822034
H              4.4772531536397615              1.3224885596082412              1.1698636841907784
H              3.6622634262993636              4.148669586454478              2.595386092000694
H              3.8153453182659027              4.0516961566199186              3.3214869063107333
H              1.3221914444744105              1.8911391070074945              2.487563672532767
H              1.8575219025535448              2.421503181358659              2.472397647863999
H              2.5412171775503096              3.952838777185515              -0.21578483226165865
H              1.9458315715894747              4.044012344703399              0.26070546206145073
H              0.4467540768113539              0.8763024023897205              -0.38786957806945993
H              1.1972780983773335              0.7884247438912623              -0.2244707365044972
H              -1.1187047311868559              -2.124857505012981              -2.509432990550178
H              -1.632189605065159              -2.3134334406479566              -2.024328910053635
H              4.07916451012922              0.7470882595426809              1.1691069332233668
H              4.287047234574057              1.4763115523155566              1.0914199692522573
H              3.6156222951762844              3.918084177451514              2.569498695904296
H              3.769707914043688              4.44484974799255              3.171851765184986
H              1.7011730976021011              2.1488901108164034              3.0129470814557773
H              1.40119714224876              2.2325364949458124              2.370624238844722
H              2.484533177072255              3.9436015184847832              -0.246313655008804
H              1.90536111921055              3.881708122570831              0.20163684012756866
H              0.6798315285784331              0.9005571737412368              -0.29047047590999203
H              1.2991910104894362              0.6789984632983266              -0.6197739804969007
H              -1.1062833595796149              -2.0523568480245946              -2.4731232888184485
H              -1.7053043211589465              -2.3624918752624455              -1.9979549560935272
H              3.664851552450753              1.2042110866990174              1.2444057471572352
H              4.140332015184767              1.458724675159365              0.7509753871550413
H              3.670144262267122              4.06046685494347              2.591408384457151
H              4.242332556609797              4.309104205553933              3.0106258530837744
H              2.124542671442614              2.304839648157326              2.9232425653700997
H              1.6906557584216488              2.083129947014322              2.327823083836623
H              2.70997935838364              3.8787128887886797              0.1400492647487061
H              2.119184173469257              4.157423900773052              0.35781900139950357
H              0.8586477099149196              0.8773388543789705              -0.08238468586976197
H              1.1111931892142155              0.8176808321041228              -0.8288155086324502
H              -1.1568128587647353              -2.214928662783319              -2.2387531334272643
H              -1.6809509986570912              -2.314423685419585              -1.7931770434708592
H              3.7675692920453536              0.9341855390778371              1.0621929446657277
H              4.138269564102676              1.6245596161635179              1.1593494044856336
H              3.6904735010521              3.7159197555253005              2.7512614412684
H              4.234646605160866              4.051475964807712              3.1325641427684516
H              1.6102359594833475              1.9678150558782421              2.890282706223093
H              1.3715846968316963              2.2459997273158834              2.2391550393462127
H              2.5609814301275238              4.378541415140426              0.1780618725617673
H              2.1896595127009255              3.997168002854362              0.6608848722978975
H              0.7680577250733949              0.8474356493262132              -0.3009964823226774
H              1.3702052927086887              0.9891931455870591              0.12869090993974194
H              -1.2316827662566654              -2.0821272471829966              -2.1035931261914684
H              -1.7074385268979664              -2.414574048849958              -1.6308880709671654
H              3.6823594673071707              0.9373524298208173              1.4027379674676528
H              4.2000816652517114              1.3832156684396637              1.2026220841250208
H              3.9136061943623552              3.738075963612107              2.645882195910319
H              4.328908278311667              4.111188606202275              3.158772691790548
H              1.345330184510939              2.0397350860315044              2.6926132554574274
H              1.876066475894759              2.1304444576314077              2.303619539181773
H              2.4499969296880093              4.274776413920616              0.5585961731593732
H              1.9223105722072176              3.8481570161177316              0.35849482139601024
