72

H              0.9871282412286582              0.8496295470685614              -0.5584120942865088
H              1.6772827234564032              0.49569548340996317              -0.5351462351007216
H              -0.9884324759721583              -2.2563692219137406              -2.4133165915019816
H              -1.7184791666658987              -2.4846677335219924              -2.0861384070949684
H              4.270210038206806              0.8525724562276729              1.3702878878155687
H              4.555652393283712              1.4126743374300093              1.007476804698919
H              3.8381773166248              3.699375501131302              2.935282841874478
H              4.093931665197551              4.322052236018602              3.190232547123705
H              1.2965285809994425              2.1317031924450136              2.787213755715369
H              1.653408392811288              2.5046233086042604              2.267627588813801
H              2.605285283038474              4.204123295628897              -0.20008262962998818
H              2.2323298280732815              3.8780503700068216              0.3649218683601753
H              1.0213474977244787              0.6969969777208209              -0.5876209707869099
H              1.4939258100075044              1.0544503213497396              -0.21360891917433736
H              -0.8090466766823254              -2.270059342638309              -2.0157515497495684
H              -1.4385836209641896              -2.168335680418605              -1.8443057338915574
H              3.875683380095568              1.004910557063384              1.3092522787235137
H              4.059663275837727              1.5549329460032875              0.8828120798902404
H              3.941771265479372              3.5597345688824737              3.0435905120113076
H              4.334594082319729              4.111933703432514              2.8459094354172776
H              1.762474045300404              2.2395156635605797              2.913074340095043
H              1.4567719207799985              2.2638656164204667              2.234328990016776
H              2.822411866770623              4.037712529692148              0.078817857201618
H              2.1589413387694485              3.699298476668031              0.25634905664725055
H              0.8644611845754767              0.8396860024099356              -0.3204249844202801
H              1.58530019660831              0.9908097340916693              -0.3421244478693893
H              -1.110639902120574              -2.506722689696534              -1.914588642679766
H              -1.783946213331767              -2.3313715817672898              -1.8952954735693508
H              3.5361486460823555              1.2265906210524624              1.3870654138440073
H              4.238375759944465              1.3937396919384122              1.2019452860560258
H              3.770155993815633              3.7188522128146073              2.935008399477467
H              4.48145767408771              3.92824857850547              3.016557999743
H              1.7859875013826874              1.9366033747104583              2.7492642162670977
H              1.5175285477851337              2.240487131551757              2.082264308821332
H              2.9593983695305646              3.869914333421135              0.22139949836411238
H              2.182832722109078              3.868230960080648              0.2876867257452626
H              0.6709583531491162              0.891570023031217              -0.3895669590614058
H              1.4013577702984532              0.9506920748605496              -0.3498894102764707
H              -1.2348368053216001              -2.4802984026825468              -2.2546884115956334
H              -1.9566298776472462              -2.6858112764945057              -1.8832237739272482
H              3.812563651107929              0.7461824822234585              1.2887242934841447
H              4.393281308309248              1.3064894728767644              1.4893456657948987
H              3.4791167404773278              3.6887396271307997              2.908774570107697
H              4.01744107455446              4.106388007456833              3.197693574222455
H              1.4755512325132762              1.903911061685511              2.7338035291216713
H              1.25816479084248              2.3177872347639954              2.1783593826666987
H              2.51447370811853              4.055127816309838              -0.0166110486371125
H              1.9273046391285795              3.693708535600467              0.24589595005487383
H              0.8521809454824795              0.9283313552401479              -0.6008683512596871
H              1.4702746149611738              0.9467721026133719              -0.21519667006527807
H              -1.4571346829921623              -2.2347575045712116              -2.3487726566949454
H              -1.8834590721782578              -2.7649900165786803              -2.103979811856171
H              3.6385731766332383              1.0334636717721342              1.4328175929390397
H              4.294162331096655              0.9969486121036735              1.0160532440546524
H              3.589989165318962              4.11899124738365              2.763373308861019
H              4.162221003815921              4.277371287727526              3.1131418817730356
H              1.957787480597738              2.106658509466615              2.845740899231648
H              1.5337534129747463              2.3319039422026546              2.189322315951846
H              2.4271414748067013              3.803980137864192              0.18268050038492775
H              1.7384660936956757              3.97316506524111              0.06762894429583725
H              0.7169046823337475              0.9945996422176541              -0.6950065298766716
H              1.403404094280539              0.8378958693957076              -0.4350257941471213
H              -1.342947312365869              -2.201123746918444              -2.313207709672896
H              -2.0247627594291293              -2.54285824654589              -2.1749320694693655
H              3.93446371145119              0.8583106491167671              1.1327131919425377
H              4.385403863912564              1.4867171815648992              1.0210729656372155
H              3.570260809353431              4.034615874555177              2.9376695803578663
H              4.229394314823544              4.365719103436802              3.0830949718807195
H              1.6972919855391215              2.090639049030044              2.954540042648526
H              1.2635985041173456              2.3185459103437696              2.3435803006870892
H              2.6175314126201505              4.003662062847276              -0.1339554649927638
H              1.9369806704053416              4.041807731344012              0.1423337187531972
