72

H              2.1750694680507308              1.9838792070850677              0.4800265258447096
H              1.7170115052659063              1.8769382030287223              1.0032920900483329
H              0.09926301285302233              -0.11826014060856342              -1.910215351266118
H              0.27341442460530635              0.3243159870674573              -2.3427627106611606
H              5.524908013172491              2.397318064920498              1.0943916648281977
H              4.920847558784383              2.446068007788817              0.7364574855037912
H              4.244673678612002              4.653792177337517              2.944719102161828
H              4.095591993884865              4.0100340326528325              2.6956274651600114
H              3.5732233483637614              1.3494060529471839              3.176228614437199
H              3.414218820074474              2.0423097572216165              3.0814642598734627
H              3.0085366354914562              4.132128037076989              0.5217055730198131
H              2.695816586785136              4.7554629802746575              0.715825129519038
H              2.2855882838908284              1.6118224513970532              0.6906929245131076
H              1.6401329394219502              1.9134189919402627              0.7569789554864116
H              0.21175009564847713              -0.23168817115609797              -1.7934730368653409
H              0.4892107800439396              0.44273093190095486              -2.169588597854418
H              5.0501138899172355              2.2831017841345678              1.3308854722748933
H              4.744564078817792              2.509671726474184              0.6146314705093506
H              4.379064487213295              4.310105723838296              3.0132796020877617
H              3.8537327435320132              3.892956916506287              3.195513081719889
H              3.4470926950624112              1.3261474245451623              3.2210557951988408
H              3.403771221772221              2.0356141520087596              3.251805247278768
H              3.091333193270534              4.168275042946008              0.14885980561739598
H              2.83572033422675              4.354019492755875              0.8313510476624252
H              2.16757073259615              1.5249448862038797              0.8925496069344855
H              1.6186363457964645              1.9973471487781058              1.0717609218482804
H              0.2814975129219816              -0.37241582557333164              -1.607248170553035
H              0.41086050010449626              0.24300993755731526              -2.05765475672168
H              5.345123212331873              2.432838422197522              1.5231177267686662
H              4.975453027049969              2.298558772759657              0.9598072057070876
H              4.529788507490007              4.53676181555141              3.081940515105935
H              4.062245636301357              3.9356987127921808              2.9841723537446496
H              3.2642831669255905              1.4400305085111276              3.3133216933045855
H              3.32085828204077              2.1689002686797854              2.9660617747999547
H              3.3308071129049415              4.314294739160011              0.23381966770392762
H              2.9861036223899755              4.6026659293026615              0.8613435279281072
H              2.3067061865979874              1.6761439518657038              0.5696326243200431
H              1.7300136409715579              1.8754661099333143              1.099106562355061
H              -0.10163177992245667              -0.437311964443826              -1.837635002512412
H              0.011353222152346966              0.19347087363969467              -2.005334892927908
H              5.4681236253572525              2.4955040725752538              1.1394266942792128
H              4.918511390246362              2.1945517052123655              0.7741977505745128
H              3.9353589672555893              4.751646618974878              3.0011427901273953
H              4.2663712505022175              4.102098376087528              3.120600407572641
H              2.9222488440044896              2.137434866934046              3.1192340036994834
H              3.5534313271204456              2.107557025240998              2.83770270775214
H              3.2732537952719505              4.256451294401017              0.09934100839782131
H              2.8821812439198133              4.526201483296569              0.7016091605519171
H              2.389572916809895              1.672551038760293              0.6566373637233682
H              1.8058152407514922              2.0524240782372116              0.5372579900398602
H              -0.18949507775213856              -0.5820591865369596              -2.0518343172047993
H              -0.07561140883840499              0.09515605673086183              -2.3345216528019144
H              5.332750853036766              2.3851185700205333              1.3402688179277382
H              5.052751241686815              2.161513633101737              0.7050376530736673
H              3.8928240810679653              4.860852382385683              3.0394825005551933
H              4.157537148270993              4.141460848133509              2.996740715567233
H              2.951222657425542              1.5356449741807643              3.3454635167949194
H              3.3784907848471164              2.071709181829085              3.0108013802564995
H              3.079281724439793              4.264113047950212              0.3676472866748554
H              2.561957285241517              4.826612888479661              0.5600554160795987
H              2.471076266512897              1.6480636995112845              0.43372887292001633
H              1.9042120108566805              1.6424490457709406              0.9772125427235586
H              0.19775903035975642              -0.35237744139707544              -1.8933745667172786
H              0.09803302626764024              0.2173511003274462              -2.3978021591466074
H              5.429074081219114              2.269109476260407              1.2308785452589202
H              4.7124855430214              2.4079140718977095              1.049926971154176
H              4.244359312802572              4.610372710020088              3.1552310108799557
H              3.978282209482362              4.213612780812665              2.633657362283846
H              3.2898026864969254              1.474365266551256              3.395184843853906
H              3.1458059465491246              2.1039638940034338              2.9277298068914894
H              2.9331809810046985              4.219271035837268              0.49920286353917664
H              2.523568479960518              4.81776643963944              0.5217864601309201
