72

H              2.2095897898245007              1.3408580270494466              1.0336778640002382
H              1.5449307228533513              1.7362933199894266              0.780468267586829
H              0.4123283640751272              -0.7766940276107129              -1.8057381775894885
H              0.2637080016837517              0.03378163241508166              -2.010183857002795
H              5.726890185512213              2.6704006414892163              1.3189595671933063
H              5.261078444751874              2.003652445954529              1.1987153375042836
H              4.0275685805027654              4.998041188480769              2.998264144888415
H              4.385991902700577              4.401413472973797              2.8834746377635616
H              3.1368615778035207              1.5068864703402853              3.109667833265645
H              3.3930797300998257              2.1720040158819978              2.979980754561555
H              3.3424684559637687              4.161631304945961              0.3521583864756202
H              2.9679896324904442              4.629413273587221              0.7868348007470398
H              2.4686998552674884              1.381473567061              0.7965497175238396
H              1.9323203928395858              1.8771654451223356              0.6647130550628709
H              0.339560952967865              -0.8790471966833633              -2.0183548965679607
H              0.16406426541720362              -0.11888577984893238              -2.1244488727008535
H              5.397026693996831              2.5846559714104345              1.288925536485669
H              5.260560960081657              1.956808595605321              0.9337912278472652
H              3.777119020333512              4.747034925055933              3.124947181141743
H              4.286814614774861              4.303276484335851              2.80183616943408
H              3.0029885999067396              1.3683415635906655              3.2599270719786237
H              3.161098000431355              2.0541767137992015              3.1886127572766587
H              3.1582211313811026              4.087560144536477              0.7039853138816263
H              2.612237475684075              4.494349981727677              0.37645494580088373
H              2.424388550048593              1.445588467169408              0.8422085783806376
H              1.722337358231271              1.693237284028792              0.891946037296933
H              0.4788207514648412              -0.5939747764616836              -1.8097524787134864
H              0.3107391101503473              -0.06457511340189917              -2.2561623886149653
H              5.612780991902531              2.4716422437638133              1.5502480906837828
H              5.209768417840028              2.003826378747953              1.0986585201017838
H              4.0837556138672415              4.563411862481162              3.1806992204303746
H              4.2252162118352175              4.2637146495344895              2.5406816297745385
H              3.146205848563791              1.2938551522269466              3.345322223537794
H              3.2880111529516065              1.9860734387435517              3.1803878327511255
H              2.803225639736054              4.171382757786939              0.8482527521439402
H              2.571283006815179              4.6826930127708435              0.3879702778625252
H              2.249941067481079              1.7044876002801905              0.5922796447392221
H              1.6696636166033363              1.9064816446903272              1.0302968746406092
H              0.5133474233116231              -0.4563715397503417              -1.7430507731001832
H              0.4306467007743181              0.23995787834192753              -2.0688460221261966
H              5.494766079344913              2.5601535357134892              1.0576878201760116
H              4.962873391905153              2.018803236964992              1.040007416809635
H              3.9566763079248015              4.485626951664257              3.07219425928826
H              4.288754239785128              4.203699927418461              2.536838437717122
H              3.7840154034751756              1.3965749459765011              3.3396900180676226
H              3.1763420823745063              1.723476705619735              3.223654915092246
H              2.7814522705498996              4.002337626370704              0.5646118054884542
H              2.821006591039618              4.705967986521443              0.5631990325488135
H              1.9586522334295646              1.5684985095955402              0.9353833449310032
H              1.4248886233897202              1.8781220120431086              0.4965316053829632
H              0.49376152098520537              -0.4903509022256852              -1.828617251080198
H              0.7018146431998494              0.2601017587098035              -2.0073753579600364
H              5.328856182304353              2.395770325058911              1.5200678026448338
H              4.987850326616991              2.0460129583112425              0.9315582501163652
H              4.145453682393926              4.7863920245611              3.1338402125503
H              3.955068702627335              4.122144247192093              2.8396428954894937
H              3.451667341128691              0.8834307346142934              3.2899891966852435
H              3.438625309866511              1.6034716306244252              3.5312102734418764
H              2.9734080562576377              4.003772244720869              0.558478616687513
H              2.968050799273723              4.7000737341921015              0.5824600508763286
H              2.127037112482473              1.361301297959348              0.8552750499269004
H              1.548635713652184              1.7613133509969672              0.9277939125229824
H              0.8846382574159012              -0.6136304152074534              -1.7643897958758208
H              0.6118226587122543              0.05281955813814078              -1.8489228801882864
H              5.608910872877762              2.52290187185034              1.4567717020022486
H              4.925588771644951              2.054372605363501              1.4356386374567207
H              4.283823724860577              4.801386729476658              3.1862137738328156
H              4.220486572779599              4.286398040157822              2.7161463744274648
H              3.281793296171833              1.2914335852073593              3.4910941182647925
H              3.204306168008815              1.841366152003192              3.060762878918535
H              3.410593441383909              4.077830117447297              0.5323268594069964
H              3.0813284881787566              4.731400481692948              0.5820009331072744
