72

H              2.3752471994129736              1.7290508533711355              1.0118551953333317
H              1.7554100045343464              1.585297471848196              0.6341122294143408
H              0.9610908925509268              -0.66266302181815              -1.8586788002271826
H              0.8256165646921458              0.018174779544270204              -1.8655404830787536
H              5.212959591997787              2.4904029798145784              1.1696596931718002
H              4.882639292667295              1.937163291765309              0.8707184879895512
H              4.0289340571197965              4.486284332531911              3.2354671712102805
H              4.2795738787725535              4.445777871916654              2.5455760059729395
H              3.509782708009255              1.247385800500437              3.5318708380832815
H              3.1437689721976767              1.8382208006528251              3.4022222139331526
H              2.525102790113166              3.958239776855142              0.6485986326418194
H              2.757975310949337              4.572801142639892              0.4118040408573759
H              2.020450823836749              1.5350986850805248              0.9457085042492983
H              1.5202589108331015              1.9672797836027303              0.7632658957951144
H              0.7232372938776037              -0.706009846492768              -1.653919300967198
H              0.8750059871079249              -0.009853380995041726              -1.9097078897792168
H              5.139237319736101              2.541621894935064              1.3531777280805506
H              4.895767451432078              1.841184934762137              1.3053323836409623
H              4.051023510105195              4.759332725859042              3.2371763892553944
H              4.414628599558778              4.295922347278949              2.8022323479194924
H              3.6205780003666663              1.1949328996147697              3.6541711616999337
H              3.2648023662147625              1.6627558365553854              3.3718319016301574
H              2.944668566348394              3.921419156648545              0.47386090584296436
H              2.944747554064551              4.658600624437741              0.3635092732426115
H              2.219532026118837              1.1701115342562538              0.9302946726641675
H              1.738641098660416              1.8191114120598495              0.922091301697323
H              0.8423265292694686              -0.8148477324736171              -1.7877704683315272
H              0.5990028591294493              -0.08468308219137165              -1.7797053827095313
H              5.095325851755285              2.5456859820918347              1.1992473171648672
H              4.8633462068017534              1.9993270942001475              1.5950788316282454
H              3.991807521662262              4.879283528329859              3.189859251394979
H              4.5400511875384435              4.355728324422222              2.9621901987650068
H              3.4383630281902287              1.2038964667839642              3.489624319660769
H              2.94378610170533              1.6907422039333195              3.301511023284228
H              3.3340773697873414              3.8726125200951906              0.42645369318650445
H              2.985573371069913              4.510741337721724              0.38227556580530647
H              2.118145351115188              1.4682355627529233              1.3148917413410617
H              1.7243947197236238              1.6992124223653775              0.7121626455018686
H              0.786448753248932              -0.8280291103932443              -1.6182300034247974
H              0.4080343169598086              -0.29575525802409636              -1.778863252374436
H              5.343494365970759              2.5466628243912774              1.2683772207273614
H              5.298163509742011              1.8684765803931438              1.129627346827826
H              3.9964114936944943              4.874278025009712              3.307440726906723
H              4.499188642414603              4.58048297149113              2.7525619978225526
H              3.1537217513432623              1.4419998908461815              3.186250440534983
H              3.004867852873287              1.995431616520055              3.5174155373597404
H              3.181709897920943              4.074428774517767              0.7631297129773115
H              2.8325451747770396              4.696388886874509              0.46621435330236755
H              2.5301421976609033              1.3342936147457725              0.7119069774246342
H              1.966901078915212              1.8082567253359685              0.9625592041827559
H              0.6893561372353395              -0.9216900252347126              -1.9058129944639786
H              0.09420869654328974              -0.3939747676597644              -1.8652156564511315
H              5.114743915089215              2.526345078965724              1.0689223588807288
H              5.125592127371789              1.8625836645750289              1.453905329357359
H              3.722599918197717              4.7120194637192565              3.113020556140968
H              4.425403255886234              4.660048981308812              2.9501680290074304
H              3.3373856883413455              1.6144100682629658              3.2073910713944027
H              2.8611936037223975              2.23083182415255              3.292523865943617
H              3.0068315706781057              4.099393809012255              0.6289336786883918
H              2.6365120141606804              4.44652930183749              0.05749530005707612
H              2.6238285152434515              1.536600158054463              0.870774565664643
H              1.915512168508668              1.593368535183399              0.6759127621992032
H              0.6340436798993407              -0.8671498843820666              -2.2056689850809663
H              0.34863104745224544              -0.13941619107123623              -2.116379410656006
H              5.201138023238605              2.594292949744893              1.3005108922527577
H              5.136798086885488              1.921000360501942              1.3528315625708665
H              3.699373786353594              4.773598819643503              2.9284996286692455
H              4.4501988161860835              4.625249813933519              2.7808635862767703
H              3.130220844159678              1.2717864907056213              3.0309555811619124
H              3.2527063883702763              1.7390988792144373              3.5387649702478066
H              2.638629671151263              3.9949450673095326              0.7513495878721155
H              2.616215795104688              4.484483447858382              0.20010541568746965
