72

H              2.4102761861497113              1.6071182515481188              0.8414761135903106
H              1.7274032695738988              1.6997610266531238              0.5637052573749427
H              1.0036942081250237              -0.801207284738978              -2.057077575518377
H              0.8616804727253151              -0.016779976205198742              -1.9829467885806658
H              5.313331329295339              2.5537579113144786              1.348750088168432
H              4.948075208184862              1.9992777251590463              1.0349868173802255
H              4.00004850366395              4.700496027267829              3.207446972567715
H              4.281192743078007              4.355008468893843              2.554218079410412
H              3.25074215285548              1.0280635966333707              3.7023965372839
H              3.2389020204737347              1.7641730143252277              3.3436984272051276
H              2.7481132812304074              3.930117044897603              0.8048811526975918
H              2.801224009138359              4.547495524672516              0.31717785149514405
H              2.186224728600358              1.4049337752329472              1.0161722650933422
H              1.4768613970953184              1.7872302078037203              0.8389303144484901
H              0.745884858793713              -0.6447030530686475              -1.633257942359667
H              0.872321257538314              -0.034584216582080676              -1.9514371107755901
H              5.397386378101356              2.6114206239344937              1.4311982319001935
H              4.925499598621445              1.9964584933644907              1.3152537076177253
H              4.219238190313433              4.683055454418014              3.2426499747394883
H              4.497734332188354              4.232723823301507              2.718120313518394
H              3.5528352088541952              1.270551267951578              3.7291710088452756
H              3.2566375381744797              1.7903714658886896              3.1567749635416824
H              3.0244879290716797              3.890435988589334              0.44362392873287604
H              2.902880798398299              4.58979333489108              0.5660935904281352
H              2.068686443842455              1.3187615226290355              1.0141880570162656
H              1.8816814863058606              1.9731327614401772              0.8984047542240248
H              0.5782484232392524              -0.8039108502669314              -1.6374266921295342
H              0.5237263224962341              -0.04657622255483102              -1.8330537327927154
H              5.065975160969839              2.6745131954927963              1.0714435188101548
H              4.990391411720876              1.9014085642077914              1.3134162796990823
H              3.980453274501733              4.629391561502903              3.177682832089181
H              4.528416886257265              4.309394690260878              2.917186095226189
H              3.5485987960999736              1.2428109185110638              3.496239584389917
H              2.9494433471391193              1.6820379261124017              3.319018329983692
H              3.272679957045375              3.8582514922244737              0.46522655343652364
H              2.925552998060547              4.50219441874108              0.4931076799905492
H              2.1364873039641648              1.3084795726916207              1.1622366761128302
H              1.7388811903418249              1.7832309841037366              0.8050112683923994
H              0.7232637810774953              -0.8666021431982889              -1.5740426929074705
H              0.28591900475862786              -0.15190267246356987              -1.8577900555360738
H              5.206070588031773              2.4722004606462478              1.4524303140234711
H              5.244939010958653              1.7119989441659116              1.138540402118274
H              3.9869985975934163              4.767524408792736              3.343983925273768
H              4.322306536352569              4.462935940809161              2.839533815876235
H              3.0657373413997697              1.2359675994541435              3.2075863402017486
H              3.057036841973203              1.9750347665889252              3.5259610041774687
H              3.0837110025259213              4.151542750221507              0.7797180086241176
H              2.7873120489129666              4.624600959566584              0.28587863956364146
H              2.484095722184617              1.4526320076511736              0.8235890756682578
H              1.8563214355579536              1.7523586594902238              1.009834260111463
H              0.7294857846648208              -0.7126828739561215              -1.8553081600293464
H              0.158776078080311              -0.3654720893050552              -1.8318775315373836
H              5.298749253340126              2.4302469362045276              1.0492757780778055
H              5.192788011652076              1.912598971001055              1.5597145859101373
H              3.7854143160508493              4.756127821509627              3.065622423871349
H              4.466492528447063              4.73744363181578              2.7898737915302867
H              3.4400028717488866              1.7296511377440318              3.0473060326753805
H              2.8913016307664594              2.0919826011139677              3.2760470156816304
H              2.9587770406727847              4.200643977235788              0.6447744940187197
H              2.75166088066044              4.689337642826147              0.13626191845233532
H              2.4393180309894866              1.6277369740801095              0.8424383539473728
H              1.7796771020485662              1.5016435852765886              0.5116164277076203
H              0.5665726742135473              -0.7437262051134154              -2.2413522412025104
H              0.3879261580073166              -0.08247035053595081              -2.0661980224054735
H              5.336975449220684              2.612263331131              1.2204663131634106
H              5.069631612128241              1.8792837980233348              1.1748424981018233
H              3.6829155181877478              4.981874298754618              2.948590112241708
H              4.269936540322392              4.6002090157723075              2.814582928014732
H              3.267048439701423              1.2753966587517995              2.9520983720582463
H              3.317782643596294              1.7724670762763926              3.5249994529414788
H              2.7110636674646305              3.947512065376059              0.6233045222634438
H              2.6669665826472353              4.642619487779559              0.2890513236264291
