72

H              1.9312029801550157              1.2738563463162442              -0.30656668492062955
H              1.3463491877800047              1.2083803175809638              0.07329604681002419
H              -1.5240428818655247              -0.7169230200928773              -2.2951576686054866
H              -1.1700390031481311              -0.7298288647589288              -1.700815453475871
H              3.7184284770535285              1.6763679085200323              0.7113547813674774
H              4.317630087653969              2.118063103778305              0.9029532525999527
H              3.6680307976991697              4.219695995415988              3.1874329852655445
H              3.945763453593202              4.262921911582504              2.4586515803510394
H              1.7101783287323549              2.0732352196765977              2.710618979919939
H              1.748899139671207              1.7175173919848157              3.353045753048533
H              1.98965130350853              3.878147537665577              0.416993614538042
H              1.3107107288674271              4.056327001294167              0.7720619199332487
H              1.8783558033296075              1.0442993107186027              -0.28213750898559586
H              1.217464746780622              1.2231960237675807              0.01776426933327217
H              -1.9283723822681642              -0.7025704915655029              -2.54247246761582
H              -1.3380606929057937              -0.9093175662320281              -2.0870089177245212
H              4.0838978659194565              1.6604946757279293              1.0571601015723477
H              4.504183177133945              2.2633796073029804              0.9325881137694885
H              3.558890665417295              4.7081450500665625              2.9315603058599895
H              3.832360131876092              4.349762222326923              2.34878767638043
H              1.6122547595914356              1.9793655721763292              2.3853789174534277
H              1.864343104747887              1.8941707873170344              3.1018490612641494
H              2.0603884481357904              3.8681056208772757              0.6562566044787218
H              1.4301946264825496              4.261575417230741              0.7866743641801343
H              1.8204445764949189              1.2889992348582593              -0.5613265654761345
H              1.1659194196545188              1.3266729202445398              -0.22430658451480412
H              -1.8535773769794401              -0.5705900575568907              -2.5705103033603787
H              -1.0822091757799777              -0.6525940372748887              -2.368123882762117
H              3.8434829521458207              1.7340403076502136              0.7129303864700135
H              4.329576183969751              2.399465243958371              0.8275276586083151
H              3.5369772227116987              4.301360849634377              3.0841812692393877
H              3.877761291471996              4.6064742470553375              2.4038302403916383
H              1.455009060100655              2.0302121644657527              2.3576145289986465
H              2.0963448939012936              2.086572866770584              2.777690010818611
H              1.693370981211096              3.6726023079298655              0.3042328941066944
H              1.547259477168314              4.084047895003945              0.9407878254491973
H              1.7372801493611294              1.354284234601939              -0.6094881221357015
H              1.4046792364834633              1.2370206420127086              0.14591448863830023
H              -1.4333708261994798              -0.35925215717995435              -2.2575019060557473
H              -0.796011638455157              -0.6943342016991056              -2.1646606501115797
H              3.93048388015001              1.8744073572294344              0.640452606888331
H              4.21621764170771              2.4425341631624744              0.8933772202866075
H              4.040072256127066              4.037519682182931              3.0566782746602192
H              4.111789666528939              4.598308005360369              2.54029722459919
H              1.7736595124568861              2.104156890534256              2.2471273568891013
H              2.1346157269887858              1.8974986244733243              2.8765043910825048
H              1.6816278078864344              3.7282433561588046              0.3539887222300653
H              1.7757220234206743              4.205219923236564              0.9291604695135764
H              1.6694797664567544              1.2510061432757114              -0.5138792579517107
H              1.4841256999482006              1.2772932169944553              0.1548453958751169
H              -1.406981252678558              -0.389493703685316              -2.214627534157561
H              -0.8128311878353831              -0.7255899334332164              -1.8646315486721885
H              4.572883297878767              1.7856506105933097              0.42168803445268327
H              4.385011140420119              2.3793909488916416              0.8442695524390664
H              4.1473113410921805              4.168234184588518              3.2490878702404906
H              3.776024217635923              4.169310974214262              2.571664524111526
H              1.849848911613253              2.3831443312988623              2.5748970603982255
H              1.7012276657990903              1.7648660388366728              2.752122072672016
H              1.975717780029922              3.7619304564287606              0.15286483505962292
H              1.6905778602444055              3.8852387910224073              0.8041851367789088
H              1.6892859462871677              1.5216945558929655              -0.37173234144769324
H              1.5684993893156742              0.9891244212583549              0.08892380158689966
H              -1.5116161882697727              -0.585086601916002              -2.4298319060124567
H              -0.998776877434669              -0.7899003422303087              -1.8181425495469425
H              4.169011313848991              1.653842751964393              0.590905170230379
H              4.759593174047285              2.129576828551896              0.6285578988058629
H              3.755413164009418              4.006298064018931              3.267440372703602
H              4.027807102252863              4.298391990813623              2.651452721962044
H              1.854240134790662              2.1045308881319347              2.4736477369373766
H              1.7294706571917924              1.9167243321206648              3.150321018470433
H              1.9466162721910232              3.832300466389835              0.19040912928312212
H              1.458868243317733              4.09914227851372              0.7139651570938067
