72

H              2.499784144511017              1.3453147450873526              0.5820850871597462
H              1.9640622568624793              1.8956963737710617              0.7421576922983755
H              -1.4891905690233185              -1.3615097711942936              -1.805315773534708
H              -1.2129449447132217              -1.6737771339846819              -2.488635887468819
H              5.0552009394091195              2.3085325720532643              1.2031817324477891
H              4.87506016804999              2.4254868207092835              0.46250036945316525
H              4.470732001809031              4.6739525656373315              2.950913170265216
H              4.59520319730065              3.9999541214672303              3.0393816293224574
H              3.527418062537591              1.8092234160789866              3.49836743281043
H              3.0245607903546547              2.2862230147921596              3.3893034949826033
H              3.13341188884364              4.387000477711726              0.7509187027994007
H              2.5071921779426405              4.552374948867203              0.41755451175404373
H              2.729793114238348              1.7375327977307269              0.7559850078234426
H              1.9616637330302447              1.7536818780336065              0.8460555826574148
H              -1.6286312326288162              -1.565464921183968              -2.0337160352967714
H              -1.3409898977817674              -1.7619130753892067              -2.64780923124878
H              5.054236969388592              2.3974161191151913              1.190498925646776
H              4.985291170274099              2.5113328864566213              0.4677720679397228
H              4.489695051365728              4.634342330136315              3.1490405150881307
H              4.493254723175639              3.9142998434087897              2.8525865673910453
H              3.2744661744654673              1.4553941638481813              3.3585275427061916
H              2.816092950916066              2.051316717925374              3.4373743270392194
H              3.1040346231365907              4.5783797406184945              0.7135688816842891
H              2.497955593053883              4.227688119163704              0.4156596203033034
H              2.5491819732778205              1.7133152039755521              0.7128020094981845
H              1.8425082438530391              1.7574387154443778              0.9376771097657979
H              -1.6424397242078639              -1.3649077911976215              -1.9484682146478403
H              -1.1455488800881195              -1.5877842167722755              -2.5242137553747153
H              5.194332348380065              2.3103891589400427              1.172467664196208
H              4.8588239734665235              2.5010992409826853              0.5187907080254748
H              4.609135907497327              4.623955745060687              3.0098160406404633
H              4.6941512231944              3.9137544779609796              3.173315285090366
H              2.8947363296271553              1.685231021792129              3.731289853431316
H              3.046229441681609              2.41408133297706              3.4359547996282545
H              2.9819423305849586              4.34218845982564              0.9030026424059691
H              2.6311980692286157              4.214560194581021              0.26223982647117156
H              2.336338932016338              1.6823729969606764              0.6200201127048562
H              1.7290785078672453              1.925288681855925              1.0280255898215716
H              -1.621536481288659              -1.1758120865824144              -1.7542641005603907
H              -1.4642934672559977              -1.2125324170744467              -2.4884760838614044
H              4.747656965715323              2.400896135143835              1.1591115886209442
H              4.972111161986904              2.542258792864856              0.3764289882301584
H              4.54353877815202              4.766025425513086              2.6908539057844623
H              4.880105998645341              4.256627976794135              3.1339555586117496
H              3.512838990345904              1.5673202316264288              3.538512466460017
H              3.2110715384631923              2.2625883573974193              3.7730806147095626
H              2.757686979903835              4.520978381275613              1.0606509857851225
H              2.8741088779671857              4.50346803620443              0.32845097124094375
H              2.3294554860624714              1.3875636771243405              0.4683244102445376
H              1.6944629433010876              1.6160728229157517              0.9193163084434367
H              -1.4187859608451507              -1.169389204469687              -1.7819774792176757
H              -1.312401409664172              -1.2761745356233059              -2.492742664063364
H              4.992390242404704              2.3589540486408054              1.1638970517117073
H              4.72075150690421              2.242379086963075              0.41176334735235726
H              4.215733414282396              4.798006766884937              2.909559512702001
H              4.568232931834635              4.1160186476713365              3.0102444125551706
H              3.6811847097902515              1.9019263369038932              3.623569289894441
H              3.08842578930657              1.7206697640408721              3.280265991897328
H              3.0047545076310174              4.360133528997018              0.9855180298390755
H              2.9429491662186202              4.401637107433266              0.23777626975109672
H              2.3638667638895283              1.45715038317313              0.6898879198991085
H              1.817980737854746              1.9364015030040282              0.6184601113777767
H              -1.1784003497430848              -1.3625230004675173              -1.7708646562756616
H              -1.0545367190026198              -1.4583923086026283              -2.5273289600263835
H              5.03700227799056              2.2960289711699593              1.31394516230219
H              5.116285485955895              2.209022980225398              0.6065600072219826
H              4.329072686861837              4.689227470895795              3.0988458640311642
H              4.6087810169025785              4.04445208118108              2.8866400974101736
H              3.536962174180763              1.7932095654504323              3.6605607962993285
H              3.0127174997954613              2.292684788934972              3.3234867036902687
H              3.2267169659371686              4.557992304274365              0.938817021474172
H              2.9018897344602896              4.594235058358254              0.29119926039161714
