72

H              0.7567184900099484              1.0032939477515244              -0.46772371977890365
H              1.2592620207067733              0.8214577443724285              -0.9355399979334962
H              -1.0519781746532162              -2.41813835416232              -2.378469498220738
H              -1.7097272649616537              -2.586762277887699              -2.2840933887911823
H              3.799582661976035              1.1041623310631927              1.3977666657092087
H              4.208164485370773              1.4488152501299287              0.8887284352071335
H              3.6109639116576138              3.87020974838255              3.108109588256688
H              4.1792414655783094              4.216951769548669              2.876684173395948
H              1.9489012552817448              2.2442190967375155              2.8468953984411556
H              1.49188933323084              2.396500058522035              2.1562712724368187
H              2.803911916660771              3.6757831391912905              -0.13611990343289762
H              2.2162602147941435              3.798280821336245              0.3107997048845532
H              1.0103886038239012              0.6868777580214717              -0.5766077789137058
H              1.622917421057584              1.1291238612189336              -0.6494555398652935
H              -0.86171777882706              -2.5422805710116605              -2.2369599614168885
H              -1.7110804406524442              -2.5812462115092933              -1.9487362669649815
H              3.726964160034811              1.023372156343307              1.4500694552603681
H              4.394908898779289              1.3768685095168933              1.0118984862445508
H              3.7908850439301722              3.645042730263706              3.1285490802801035
H              4.4243549439923555              3.995321321768802              2.9845647353039237
H              1.829093121579643              2.0649188924074693              2.3486431328372652
H              1.1209349335788807              2.4613194552019277              2.45020197295478
H              2.6465179058266033              4.254428596584983              0.13709932842741324
H              2.2220671395791767              3.8790641295844415              0.5959888574517335
H              1.1692571736665398              1.0830643243887002              -0.6942215368200243
H              1.514463960217941              0.9589832511393828              -0.06103302151426335
H              -1.055528850164138              -2.286190360957491              -1.8653147517226851
H              -1.7635791985462301              -2.71933537034879              -1.8413474081375658
H              3.836873611757063              0.8171614584827979              1.4438183134327196
H              4.312446242827151              1.3341138886256616              1.3296174564490635
H              4.03272204762385              3.6101835535851143              3.224485314911841
H              4.455672532488085              4.081928439334601              3.0227305243420672
H              1.2126887074000203              2.0114323877973437              2.9213942802900887
H              1.344354729169191              2.2704352056492922              2.224939618162213
H              2.539810793187676              4.059234242504377              0.38660535471568336
H              2.011028055087407              3.631742746249145              0.11959877593732995
H              1.317368616770774              0.7095082157801436              -0.7134764052506388
H              1.5464222768283908              0.9890752057368655              -0.08293065544007829
H              -1.3718695209454845              -2.4353618982246394              -2.060181270183872
H              -2.024922521935347              -2.4976542417503387              -1.9289714965719535
H              3.827576312007689              1.050190109499632              1.3194356109083407
H              4.487455725079497              1.3743532319905605              1.0754586546795122
H              3.734291447167277              3.9358121175510163              3.0905227253829906
H              4.391969121719771              4.129582528083055              2.94396398982881
H              1.6394225373329099              1.9007925002085473              2.657113070290133
H              1.4218691532101884              2.397762148091853              2.1275389143075687
H              2.7070459904543727              4.095383262845347              0.22535712653094736
H              2.0511083062760767              3.8299652948958354              -0.08757819007953387
H              1.2402207058825754              0.6494039586569124              -0.7902439540787589
H              1.4426586165278534              0.9638143930113667              -0.12679244208478171
H              -1.2269973437173594              -2.3230531538708616              -2.2427134859308717
H              -1.9855714495262082              -2.5761381755409367              -2.183345370845379
H              3.833039436033286              1.0497103839280524              1.2754226350786833
H              4.496713800512515              1.2094243413187562              1.1576712739899078
H              3.638603955545288              3.643308874831859              2.94579432027402
H              3.9470413131530506              4.209983922924566              3.3461587153887575
H              1.5088036792488237              2.0775067980264676              2.8310100253916084
H              1.25406774879152              2.4018166934684353              2.2271317178237706
H              2.632011242254381              3.723566568712681              -0.39389852723979313
H              2.0571917715877035              3.7991206809558893              0.14719683275784232
H              0.9231034091782802              0.7342178214860556              -0.4754503708903593
H              1.6031248065483628              0.5920746477437099              -0.43501800433363036
H              -0.960582830892357              -2.3904806049140785              -2.287332353988778
H              -1.623715646741687              -2.6636781705295225              -2.23522150761996
H              4.0801680623169245              0.9257534045163693              1.5645259515446002
H              4.507157784587075              1.4842964929107523              1.1823478799803175
H              3.628325532029185              3.78600420578446              2.9310835864808604
H              4.047391263164906              4.335258975477569              2.969611525272003
H              1.731997049144305              2.3341424694788664              2.840830837933831
H              1.3983551750522147              2.292634524187292              2.235904841789995
H              2.721435402022157              3.6410157322830505              -0.2107683826957992
H              2.0957970888722803              3.8283488749394707              0.18423518941167358
