72

H              2.3166859930376407              1.692208942278853              1.3196648504661488
H              1.8302446042671605              1.5500942944499605              0.8304166543267396
H              0.2947481843009736              -1.0522482571800398              -2.0355688197222177
H              -0.4993608177700038              -1.081571169086263              -1.947101539296171
H              4.614110986803439              2.224487842764531              0.8174855746158785
H              5.024981106118397              2.564664251664647              1.3654959087430842
H              3.825814893331057              4.661474149421162              2.4642264878580913
H              4.255435127209792              4.817574292247599              3.029474346339024
H              2.7666122107796              2.3434845698133575              3.504448151697426
H              3.234757957960264              1.9225684610138198              3.6293440912814963
H              2.5803080260153566              4.53137619544484              0.33711346159718325
H              2.8499882893075155              3.87286952948329              0.2886899463864867
H              2.213714718659216              1.4483273599778264              1.0272309829107944
H              1.5439798853664037              1.8182523213399187              1.1640073608683044
H              0.3864699994019787              -1.1509015308962964              -1.9873300922977455
H              -0.2716098305696576              -0.9699918514685999              -1.7717104494380882
H              4.819514695566473              1.9305199155637462              0.7695956289798683
H              5.091005756948239              2.311019968447455              1.3500427090059306
H              3.69752849357513              4.704392878184049              2.7501495409703147
H              4.380772279490856              4.6552182080034905              3.154947298070141
H              2.744671726486859              2.1562497108028853              3.3944645632533184
H              3.085505646120018              1.5249300434276412              3.5078467652841665
H              2.9415730242616815              4.6108438206019295              0.34189467698746023
H              2.749102931804778              3.9108864273373674              0.2431648054073468
H              2.0350828897484807              1.7579676243899292              1.2217191442216215
H              1.6845961526538247              2.2722399272335916              0.9031026931546717
H              0.34073649978122633              -1.2816451988265856              -1.606634967063744
H              -0.3332407324871267              -1.1343809578244952              -1.627500544411099
H              4.995097761897436              1.9159687825179028              1.0480546488855593
H              5.055586111891478              2.5605164599650183              1.3181316572532116
H              4.2647131908158205              4.5906882905514355              2.629384081200342
H              4.395904161913398              4.730850791327108              3.3045890585047597
H              2.4114540033589003              2.4522296806982085              3.6762841974323917
H              2.948684987954422              1.8824096582568823              3.7177434912789646
H              3.151733515460014              4.616972773619455              0.26824153760206887
H              3.02053564664283              3.9436688641956263              0.5211627700503882
H              2.171878967440357              1.5127325307674415              1.239655022086903
H              1.6864508592362515              1.7901604034106315              0.7569806445355222
H              -0.13547672909421266              -1.1622877472843034              -1.7606165260086044
H              -0.8024374420073066              -1.1772285096120905              -1.628988326564169
H              4.859261691868557              2.1464353082428893              0.9541406317356661
H              4.889665632824677              2.6373388965814355              1.385094260971838
H              4.287628457606728              4.879268772947244              2.4636145090489996
H              4.212694456536824              4.9167307791523              3.2102731709913375
H              2.3232866031236457              2.5409354356558667              3.817220243795537
H              2.8559969450960403              2.041018489971895              3.752366033348782
H              2.880173111670516              4.257932399713066              0.1551510871179168
H              3.157717234760241              3.8770945842733786              0.7011509247625839
H              2.4351972163597124              1.4765557403845087              1.1759375934767653
H              1.7632801815440746              1.6016112689893272              0.7851484330941314
H              -0.042552396337825794              -1.1632549626377708              -2.1145826819024616
H              -0.6909355907794189              -1.3405237417700895              -1.7472071642317388
H              4.821994506479971              2.1524484770084547              0.8572802048027401
H              5.172355887760381              2.7526967509780573              1.1018601259359446
H              3.997575225978059              4.980151236162644              2.362761938405507
H              3.9637718006211173              4.795592460029035              3.129115643933496
H              2.210013481626825              2.215887341036647              3.98909246255263
H              2.770152335448696              2.3113193278431665              3.4955465115751725
H              2.7662353068769683              4.281511299225109              0.2541449624700137
H              2.908448013890695              3.711009696280692              0.7580542146574664
H              2.3587899163846613              1.5248052369575893              0.8595443804799862
H              1.6964244454566395              1.4828871999624118              1.0540055379022557
H              0.2362617618069306              -1.0087758870922592              -1.9705550467135766
H              -0.48928814853856983              -1.295353820587924              -1.9355722329778597
H              4.814394081430621              2.0768252958204423              1.0258103528531959
H              5.222270512123954              2.7344291411136457              1.1628904308357195
H              3.7728165266761566              4.7721054924960455              2.4398023355159264
H              4.1043501169196475              4.729546904205433              3.047202877333718
H              2.2919885626312904              2.616669968029856              3.6351699277554284
H              2.975353747057374              2.3179642572593315              3.7560156833412583
H              2.476873949899915              4.259166217829603              0.46279569311827484
H              2.904241724339702              3.626996286908368              0.3874340571918437
