72

H              2.1108962210387685              1.541468944198913              1.0538291669775743
H              1.8530300297787077              2.2276064726164875              0.9909141589665944
H              -0.3358766986113719              -1.1830667178426373              -1.6316516071563911
H              -1.0871634615635162              -1.2277404542892028              -1.6895473499684346
H              4.731942842900971              2.2003361670423165              1.1594011398856814
H              5.056600916932839              2.904327817689205              1.2358207658805582
H              4.509379194244016              4.972687497131036              2.490096213498454
H              4.567189185221677              4.726799108709482              3.1346064814425905
H              2.5169332031025062              2.0052112196168497              3.746216653798396
H              2.828196983748467              2.4519848081067344              3.34038165993946
H              3.0580516454164477              4.413425349895207              0.36508472025661953
H              2.8027037053731036              3.8415175786247673              0.7179916972514736
H              2.472707582401355              1.578232511827172              1.0359571784066823
H              1.737095021579581              1.6249203287240264              0.7952115908772873
H              -0.5287902033936949              -1.0866745848874353              -1.921033560436948
H              -1.06276647194246              -1.594612059431995              -1.9247165562215556
H              4.882882701951383              2.1963631563278656              1.215984054417332
H              5.027739961344768              2.8035050614898913              0.930431319448707
H              4.279014341635216              5.096421302779672              2.530699837650176
H              3.9994856478497054              4.579065252601623              3.006028101223181
H              2.483999675524362              2.149445889731626              4.004637390212799
H              2.640106389451623              2.273009500599672              3.3734448184595927
H              2.805547158197733              4.147675679241817              -0.006165979870691374
H              2.8868871686378657              3.8681872711487606              0.6916584652798788
H              2.4807890441753364              1.4555612891202625              1.04513117439593
H              1.8845801940037523              1.6710423563072652              0.7344951741568491
H              -0.20187837549182705              -0.9950043087802255              -2.1094088955444974
H              -0.692946822451614              -1.462219122068552              -2.2059800570583605
H              4.895111494209978              2.2497363666343224              1.534673483350297
H              5.280840420554558              2.7907541311456883              1.259159064489218
H              4.095125946338648              5.099500787638942              2.430222862444482
H              4.178377066861315              4.559945321485488              2.8997723758410068
H              2.3724441342691303              2.1964219468301245              3.6868376880551232
H              3.0002906600409527              2.126360182320253              3.3901169625431335
H              2.581720407019868              4.227822192559282              0.42886348221915915
H              2.81171179321911              3.543851223449641              0.479420849337683
H              2.3702223496689423              1.316718690306608              1.1384410045118827
H              1.9631674056934632              1.9310311305313335              1.0557838678454912
H              0.014391136412348812              -1.0144416970587358              -1.8638636097600019
H              -0.5074892613130548              -1.3330336409430148              -2.078831752107182
H              4.556695918679413              2.2573099742242584              1.0039241015818665
H              4.9744220386253115              2.88952300551586              1.1151205079497646
H              4.0049075401673875              4.670198426898236              2.5204364508802324
H              4.50708002740911              4.700115833586659              3.117451673282081
H              2.761349889649393              2.2345254661473075              3.472802936919505
H              3.3703706950019536              2.056063029107105              3.080953125420194
H              2.822090193557854              4.50446399681532              0.4328188293716957
H              2.5785821123857025              3.8910180797161154              0.28435395990616014
H              2.2977288655458716              1.7769389938195042              0.8720972007266075
H              1.7244102034975552              2.0865381688617886              1.2338012493670187
H              -0.015985187857852436              -1.2745607919597108              -1.729475948297519
H              -0.7432222914742131              -1.2228082919459158              -2.1506574075780422
H              4.674551104863037              1.9493489143048586              1.0504566524868397
H              5.063663192326552              2.579811174881555              1.339311114503571
H              4.05274279914479              4.896147018244587              2.6508943389020776
H              4.401494240985096              4.427377730822045              3.1452293964690683
H              2.8127228889607934              1.9373318234211814              3.5727394986545837
H              3.117877753732298              1.4789441760134194              3.15598536168987
H              2.8855411808516087              4.535575639299643              0.3018086735108582
H              2.971283938547314              3.773217690656851              0.36643701207535123
H              2.245922896351565              1.617044523263367              1.084950412055135
H              2.0014439144874148              2.276387950850441              0.8978736471608496
H              0.017632599412551485              -1.2854846379430769              -1.6897601562601563
H              -0.7584460080838545              -1.3367301225293493              -1.8837611869311113
H              4.954876710078618              1.9938065373929432              1.4670097325246254
H              4.977659258956181              2.6931852502474305              1.3781585318983038
H              4.629624076747259              4.759241919281243              2.617972195604051
H              4.439932547453339              4.456448094939391              3.22482129324618
H              2.4583843730082546              2.1498792077761193              3.7044980868016615
H              2.9209911344823873              1.7816455545133583              3.314289717013343
H              3.142014271521472              4.5224997238498155              0.305421382716987
H              2.945146621085144              3.752918183621523              0.37702190332037344
