72

H              1.827925781693685              1.9724709396006308              0.31149537122186627
H              1.8634944535255975              1.2943569034150715              0.6298041365060549
H              -0.8363429105711286              -0.028660309659988586              -2.191346025237273
H              -0.09540611536732868              0.22514266644602005              -2.4884482780364765
H              4.871796289912484              2.040745098176935              0.5299837320029385
H              4.440775530636948              2.729232254411894              0.39804889806889837
H              3.821549707579941              4.353317377534929              2.6089083086101064
H              4.072128233277252              4.7647399031915              3.27197632564165
H              2.839942147001839              1.3916105117216413              2.909952948519942
H              2.766923025090008              2.085074309065861              3.0518919347121707
H              2.9595343159119727              4.373601405357833              0.15019089593906298
H              2.2644591294518683              4.3172056536170516              0.5712453307697711
H              1.9602000207371835              1.8874987520610225              0.2233889930626677
H              1.8078237223424418              1.4032756124734052              0.8692182939470636
H              -0.7840617537276988              0.0922718391855982              -2.0383597268229696
H              -0.18736294129619135              -0.09602356162623177              -2.3392824096599845
H              4.370967363930619              1.9603109679704158              0.6201784309064412
H              4.78585540827592              2.5191387335895663              0.3936512586014699
H              4.097654089381011              4.03125223834103              2.8708333480187114
H              4.107184930581721              4.522910042808589              3.523073441280531
H              2.7528116521337345              1.2913417752301197              2.9851109697295697
H              2.8582165979850576              1.990375313533406              3.2508650345491246
H              2.5272254709696726              4.641162151934761              0.16894201734510703
H              2.4278823442123514              4.092125116993931              0.6270665676197371
H              1.8950083564829163              1.817731113373286              0.3036875562279605
H              1.9795236943547856              1.666457481213011              1.0327498845150649
H              -0.753980691032071              -0.042467866330266266              -1.6648479734757082
H              -0.26125378395799154              0.06814082150705529              -2.062417735293387
H              4.550580767694646              1.7831705598619736              0.6559974751324781
H              4.571958403586915              2.5547488941401997              0.5173255064715278
H              4.268818075945665              4.150668867145346              2.7509912511915915
H              3.9610418598989288              4.262269028747925              3.3973921813542685
H              2.542904886789255              1.2095110345647562              3.489287480476757
H              2.773707543209294              1.8893985962298059              3.3922284584076747
H              2.4878108491778588              4.39966109895237              0.16438211383683177
H              2.504128706992361              4.040086401283644              0.7955414913145823
H              1.796426966198872              2.089241787127547              0.1911520038059283
H              1.5223900761789455              1.8635371124827622              0.8122648284020746
H              -1.293305421791805              -0.0086939812651647              -1.9842454820975208
H              -0.49413816305358016              0.11090543845491861              -2.1404431956305654
H              4.8173281870382665              1.910425925662832              0.8044252209883348
H              4.582506700260864              2.354963052482854              0.21101385510703954
H              3.7218768826104105              4.4781977434113935              2.6522513297650376
H              4.075594356418695              4.371499661928361              3.2933711604083578
H              2.4011203501742475              1.5779276742827442              3.2984687725638877
H              3.170212279366023              1.5374814107017065              3.631125565505985
H              2.7263731359668633              4.271228768097614              0.16142563404940957
H              2.2696071461531235              4.501291144297952              0.6978415033714418
H              2.0268711779850896              2.121457343064194              0.11261141601753039
H              1.490571867563835              1.708308192510829              0.3925630501879599
H              -1.0504040762347269              -0.16367102335539613              -2.216932573018394
H              -0.49051292422191667              0.22168344383464247              -2.3302161506343126
H              4.177720176472177              2.006621810684608              1.0205640529928361
H              4.225767109857625              2.4016407357994347              0.3519372100809863
H              3.479930928311595              4.5185676610666885              2.690994822447306
H              3.9368221498951423              4.4192180252016575              3.2914987912334697
H              2.3523734158267584              1.6541478702373515              3.3170162092144024
H              3.1200807462164786              1.455043802650843              3.481187214431566
H              2.649967056226922              4.4487146632258385              0.02391606779498575
H              2.3154788862434352              4.309722521085951              0.6779093486211518
H              2.019418121608069              1.8527319194476837              0.27956413694415144
H              1.4240698338671376              1.4405540062594673              0.5460495197221573
H              -0.7678665139813191              -0.11236173360174542              -2.1481939442621245
H              -0.21415182941222402              0.18659936043805586              -2.5812554019475393
H              4.554883595744395              2.0269236526986716              1.1070659012544066
H              4.30672298958019              2.6433831535896113              0.7310804276703213
H              3.8049215361149185              4.668555804746261              2.4449230286791064
H              3.9799637115938875              4.615897802352575              3.198306489807572
H              2.617950537432312              1.238760485873602              3.0630133465978187
H              2.9790173170785526              1.8374135677633907              3.256474772973674
H              2.8156448142628587              4.496253442420782              0.1831159135601568
H              2.4012557879369423              4.540399609158286              0.788143562236773
