72

H              2.1636605952086883              1.324308981008376              0.7721774002787163
H              1.611512047251931              1.8070236768230716              0.9024577462113762
H              0.6048946829373933              -1.1963214967213658              -1.9612585788414216
H              -0.1286237613500697              -1.282373179543533              -1.8187383202972016
H              5.101667160253144              2.0307518394853923              0.8926356505201603
H              5.168798965121531              2.4825263319619477              1.4315984318998605
H              3.5934757550308154              4.749229366665492              2.6183687807621796
H              4.2431392046419525              4.606672141195684              2.999282517843876
H              2.5365657329476927              2.57976637340742              3.59891750002038
H              2.685633033933396              1.8877700643587307              4.02068551985873
H              2.89189514340627              4.475433013529085              0.5431768600229159
H              2.990231253383644              3.795074154546126              0.21060930594138252
H              2.235445153033398              1.3806058781844592              1.1587640738204021
H              1.7713471236627378              1.6163467310289534              0.7009653862389466
H              0.37559926461071497              -1.2384229833711997              -1.7826855204300454
H              -0.30633104785012766              -1.3417030691506036              -1.8539775122342708
H              4.985843562973522              2.3081120632520933              0.8430822687198605
H              5.081330602512886              2.759816576598976              1.3833373650514424
H              4.140957727265326              4.427828046473702              2.473243288872091
H              4.163660099889339              4.776162118491735              3.09716401644098
H              2.4011672902176904              2.6019096705800786              3.7060899894945285
H              2.816339711140997              2.362716692046767              4.209985750856246
H              2.6761898646814246              4.42265591638761              0.4433708056537149
H              3.055909636053998              3.7807917053005102              0.35317969449470044
H              2.247407511717473              1.2752125360154332              1.0714150761468668
H              1.5131431104835957              1.160608451566734              1.0917258457145027
H              0.12230179950999152              -1.2182993145060659              -2.046852215901806
H              -0.5521780768992267              -0.9072970841234705              -1.7317471789446817
H              4.711839628890263              2.4473733002412192              0.5557738730575418
H              5.1139540256719025              2.3235937166065037              1.1791878160313158
H              3.836496183820785              4.573064629131061              2.4665699028382337
H              4.068822354161573              4.817218658693283              3.1644149315302985
H              2.415470922232789              2.1586844774028093              3.70041672555849
H              3.0144248459448497              2.1277592740383007              3.9897215073332934
H              2.551291811986764              4.393548201580044              0.397326710731026
H              2.9618690138187933              3.7994588302769348              0.4875956874186351
H              2.246365875140585              1.5625529485841              1.1076197021526981
H              1.518845635503164              1.4297043471163349              1.1519321724717264
H              0.34720166367844696              -1.176588103665771              -2.0053386932566557
H              -0.19358543927318256              -0.7852635489846439              -1.5534657967622036
H              4.6904106717479355              1.9601718152987642              0.6105992449401134
H              5.1932181089915375              2.329119763034988              1.128153010798773
H              3.717665458325568              4.47238318881649              2.571803582414999
H              4.080278192907951              4.713509015393421              3.1739289505355197
H              2.387505081370463              2.2975080219725057              3.711805225229907
H              3.0613278197705167              2.1360369183076497              3.755725148701148
H              2.770145254046376              4.579227688701806              0.33869720900188005
H              2.921169602711135              3.8347067157283536              0.5802156864787211
H              2.1190481991155394              1.7488278166482847              1.1680224126831475
H              1.4768990883904745              1.5391504856676343              0.9791725944413133
H              0.33263468317102385              -0.9835944460486375              -1.8457080395782102
H              -0.21243585469493786              -0.6669489983295332              -1.5412060616683227
H              4.703403448922188              1.971723802026965              0.8022054941891313
H              4.9273561822696585              2.2478279903978753              1.440111740145199
H              3.73392341696914              4.676845258209184              2.6062179911880428
H              4.244982609575288              4.855223704834395              3.0733383824167277
H              2.793039360647796              2.6660254778517527              3.4870719256104405
H              3.1275411559452992              2.0879371304657344              3.7265521441633536
H              2.66595438055997              4.465485035598096              0.33766516700595733
H              3.22880796830147              4.048232033101714              0.44831329701354616
H              2.078652955714455              1.5252898550691754              1.3281544122528628
H              1.832477313641694              1.7462730011251988              0.6182963782535723
H              0.3430560792903679              -1.0498799725625618              -2.0332452140372994
H              -0.1809058652847766              -0.9747027886382233              -1.6408155365380377
H              4.743348565280971              2.0567128626424545              0.7131572112597399
H              4.808822701630783              2.4063790079003198              1.345175906567067
H              3.6099594231542684              4.806588793003017              2.4979411296024803
H              4.185229655590191              4.836073202571781              3.0651616443005207
H              3.0412203357968357              2.4665860523700625              3.6390121909691864
H              2.8434147950575155              1.8544030980043034              3.564671349699578
H              2.8615226489298817              4.638619573471514              0.31190700871042354
H              3.117252628556934              3.984626627859661              0.3329870656772838
