72

H              2.193258352104682              1.3562824007396868              0.9150066747085881
H              1.6274695210985373              1.7218666700757523              0.7890290000410434
H              0.4229332426602338              -0.7525548132983227              -1.9459261319284233
H              0.3427018530395539              -0.09296784038521608              -2.0522456789496757
H              5.678340345824083              2.680318227056261              1.3683976480603932
H              5.264264449445882              2.069679429085469              1.3479042120998057
H              3.9987544354843405              5.037068446033311              2.9263741277001762
H              4.417050847237894              4.442673697059847              2.9274675976754474
H              3.080935140061362              1.4808680095913942              3.155307474558221
H              3.4476757860854796              2.0860443279845184              2.960262995291058
H              3.412846119410103              4.119327318588597              0.3992705247062798
H              2.9403968766067137              4.582862537648963              0.6935053107702267
H              2.4947098077511085              1.3516134098418926              0.8793262748635796
H              1.9395248757869987              1.7620799027186214              0.6532654375877744
H              0.42354883207109584              -0.889711449353749              -1.9898753423864193
H              0.25893298781055746              -0.08273190298005499              -2.126108175535736
H              5.424714414923687              2.6458223340463856              1.3162826602922144
H              5.236541215947147              1.9713031943278574              0.8875132104529209
H              3.873905263262594              4.699951896342915              3.131096246614848
H              4.309056468601302              4.283296924993286              2.7770100239698476
H              2.9647122351389594              1.3086556195534464              3.314961436319566
H              3.176024025262717              2.0353936544749804              3.192064272522477
H              3.183304120325783              4.007771660231731              0.6878274724037932
H              2.5882814234343816              4.442446591176458              0.48098728159817483
H              2.360737446927313              1.4458859111498565              0.9739837712313548
H              1.7118988172791865              1.833787204575597              0.8772422862727461
H              0.45250548425120884              -0.6147977020169335              -1.6660777842017318
H              0.3534954052086377              -0.09354096970001925              -2.1958763137720876
H              5.5613156715927134              2.4492263414287585              1.4875212367767041
H              5.285013188462528              1.9883361952203336              1.022572908754435
H              4.11179568270804              4.4581860610201085              3.2410100957682886
H              4.271611552731138              4.246139194880888              2.5211514803808934
H              3.2356070380172133              1.2974933307838123              3.435289221244086
H              3.2328341871374198              2.023615399730896              3.189562376041943
H              2.8035632613721306              4.1533785662980005              0.8697479743960015
H              2.5750547189750774              4.70832020641833              0.39579897349480847
H              2.231842066754672              1.6291760862458076              0.5331863657004045
H              1.756411028032691              1.8899396726642625              1.1088363461179584
H              0.4597457502456925              -0.45500136193956453              -1.746519711882641
H              0.3520950883637654              0.15723557541717667              -2.032709902465085
H              5.367830147125244              2.5325428155004297              1.0958018131227683
H              4.923073413985307              1.946638004865627              1.188723194175504
H              3.8646067166922453              4.504214741313281              3.1239882541486486
H              4.327177420150342              4.185197427468035              2.606729837067205
H              3.7860062213729755              1.371384798485437              3.3286585545348184
H              3.1102423888607746              1.7515631223810948              3.214182363776242
H              2.7929003452182637              3.9519145574041525              0.5587626010552167
H              2.809465836416033              4.713083405826287              0.3929571838631601
H              1.9595529344149387              1.628165779009976              0.9587103999042744
H              1.4611880429429138              1.8377006964229314              0.5006772465681656
H              0.5846117187448843              -0.5137957064104003              -1.848703895185963
H              0.6403287659603795              0.2556664230195202              -1.9864689567945906
H              5.3657362365668275              2.4405537125825387              1.4564226389560786
H              5.028949565442831              1.9479044744355352              0.9694475538422687
H              4.07996739002248              4.851718723477293              3.120449429763305
H              4.014207657076515              4.220449181316272              2.7605039945462613
H              3.437352715630874              0.8674006590726113              3.1918540948446545
H              3.3791809023603867              1.5283420617884877              3.6370001683357573
H              2.9002930411204955              4.013260837193202              0.6129055230864373
H              3.0008089002228195              4.793615292861636              0.5899094544750938
H              2.1613579699834977              1.3800581967130423              0.8548802260029511
H              1.4433896635147445              1.7316223761524117              0.8441399351286837
H              0.9569169145098398              -0.6597229260087155              -1.7858277695740419
H              0.6190808237070187              0.09167609661561503              -1.81061612101923
H              5.615964124344141              2.4601593403528703              1.4147950348561023
H              4.926370466599102              2.074378224193154              1.3612961329565596
H              4.2461255245127205              4.8640187421733785              3.2154452202138546
H              4.1610610650717605              4.3454000463343085              2.709519165617463
H              3.3619323107195895              1.264447994371331              3.5159554556565324
H              3.1829239202680273              1.9539036063141868              3.0489447050166167
H              3.3369233866927046              4.097696510562963              0.5092800938662679
H              3.0621625905465626              4.771565405395499              0.5615857974139713
