72

H              2.203663464776486              1.757415664446369              0.4245951652421219
H              1.8929883516128607              2.076998859962536              1.0208501939536252
H              0.16384415320595508              -0.3554165539952563              -1.7892756574050708
H              0.1057385427546893              0.2214101346638307              -2.2316695554953836
H              5.254660141572839              2.437325430409954              1.4076430099531883
H              4.76541575666323              2.075325172825292              1.0763160482062946
H              4.067569316793027              4.482636110682994              3.208014903615119
H              4.0171794172597055              3.8708550590822863              2.6539356986519755
H              3.338912366228741              1.219397193363921              3.319284188167914
H              3.3435607212088225              1.9850728653316245              3.1766018579678814
H              3.0399964341179793              4.070342657219986              0.6150114452063912
H              2.7081921147883183              4.713049224214567              0.31831069506290904
H              2.166743987184676              1.7411919402528655              0.7087430784381487
H              1.3583842717008765              1.734885189019073              0.8409707858889551
H              0.4599076762814508              -0.18174143554128105              -1.8008986753625669
H              0.3294412165634454              0.3978287709549601              -2.0825564611615848
H              5.414101799856102              2.386788710691231              1.3816630301800787
H              4.855814320578024              2.2194423660988005              0.9021412079600026
H              4.325023097881079              4.7410544155279375              3.0344368650410356
H              3.967507187181212              4.111802734656354              2.7344310260377145
H              3.4415967638148284              1.0959406367202558              3.155218640970169
H              3.4246470403450853              1.9214291195891835              3.2650372508396672
H              2.9943419813658747              4.188538406990018              0.4292770510453929
H              2.9333421597426956              4.770166202290932              0.8720943123131375
H              2.1137205861807296              1.697040617291624              0.693311443880416
H              1.4771179181692358              1.9375972270580213              0.798554999148214
H              0.40624205010605857              -0.4491684148484949              -1.913069759372161
H              0.43674918940319707              0.29578928323695186              -1.958967866121079
H              5.523102293390562              2.446132312841896              1.2393474605443766
H              4.909440028734902              2.30868564684916              0.8585782886491948
H              4.195156663819626              4.875554389977213              2.979745875514178
H              4.0286037771142444              4.171389601308211              2.9359290280238883
H              3.54034656900766              1.4612865604587468              3.116103917996187
H              3.2927446548159303              2.1496862971942665              3.1214528908213954
H              3.2666859320817254              4.224909575066976              0.32968087298333754
H              3.036264507107067              4.777094772014337              0.763987444161513
H              2.3770743218057793              1.3389518148304416              0.7435796804787999
H              1.7115664860450308              1.631370084812297              0.7398427085724599
H              0.12094161435535282              -0.6778577031706526              -2.1457580299243735
H              0.3476972700243724              0.10787880623439172              -2.2761190099282804
H              5.525260073579142              2.5355169635589148              1.654432661304021
H              4.948360969820816              2.307494067496593              1.1542350861937696
H              4.131287880583616              4.878507296527542              2.923880936783358
H              4.098817813515247              4.195022201193015              3.192968551148229
H              2.8235988472448064              1.8072670542506881              3.03708446647121
H              3.617480279244462              1.9922463129753192              2.9019310963458076
H              3.4465627687048057              4.157130569447056              0.4095172794940262
H              2.8038479907208576              4.56530397469299              0.4711638665093239
H              2.5056943739662403              1.5350722128775165              0.687263935268549
H              1.94243866125287              1.7826888716831044              1.0631944559437851
H              0.24398203092804854              -0.5173345295320683              -1.8715364360944187
H              0.2363343610894875              0.03931322759844516              -2.247554621675044
H              5.643161099943048              2.549538900982724              1.181818376461793
H              5.167268317986717              2.256313064899104              0.763409497566821
H              4.189219850896586              4.651231049470699              3.0661337519135303
H              4.333774079764138              4.057253209702465              2.6597571484105584
H              3.116444560557008              1.840613158178373              3.461829885992903
H              3.1581235332260715              1.8885574692941514              2.776358899395472
H              3.1826360399386635              4.163423433630473              0.42983318890683503
H              2.7055418855962197              4.541631114786121              0.8761246370565291
H              2.272759297404681              1.5162848794786155              0.8902964893154587
H              1.7025223456917238              2.06599472129075              0.8934459704232862
H              -0.08818235756037514              -0.2615596409137053              -1.5891463727438593
H              0.15689836992450137              0.06277295111986324              -2.1983475836219095
H              5.4506491513332              2.1755933050916467              1.2260215574334514
H              5.182534662855952              2.3477869177511734              0.5661250032363194
H              4.177935528095883              4.479984214450266              3.2354992749916573
H              4.065480875699529              3.871427425360009              2.763523192046048
H              3.400045110964328              1.5406669333258234              3.28779455583516
H              3.324619496350653              2.2457608414442127              3.102081405208538
H              2.853461398848088              4.169203044693669              0.3469917859583981
H              2.5875807935980975              4.729153300654181              0.7749622187348341
