72

H              2.3279248937768804              1.258310770196983              0.5343647654967022
H              1.9200805365007345              1.7956329762135155              0.8310614399979767
H              -1.272791090770114              -1.2985519629358233              -1.5502872821382305
H              -1.2685949724291885              -1.730020695168876              -2.3265492913426065
H              5.080308288880287              2.5602554957654573              1.3127263714648307
H              4.92137033624311              2.4198791434512863              0.6047621319106763
H              4.761326859666153              4.544331525597445              2.954750077501409
H              4.535291522563542              3.8733534749365077              2.9214629883307173
H              3.3436693187098574              1.9551957861671168              3.5610507537659077
H              2.742012531434047              2.4200616099263645              3.334191281275727
H              3.232904157450999              4.718731360362821              0.6353365686645724
H              2.6450581001104982              4.612423100432993              0.2069648544385596
H              2.4563342531266343              1.3876234768840319              0.7601907078868557
H              1.765006534517848              1.7087483546692728              0.6603566174683438
H              -1.7053337902726364              -1.393734931110623              -1.8953640344034521
H              -1.4473123260620138              -1.6637732749309064              -2.4599374434363153
H              5.311089893592174              2.408335602915865              1.243211879885665
H              5.06764418683341              2.500007327566417              0.583084877431679
H              4.440505831483167              4.851002056315925              2.8507981687340833
H              4.501095962894812              4.056928946040059              2.938947495899376
H              2.966071665440245              1.6560280710397293              3.759623701086269
H              2.7655139224761403              2.4579224206218893              3.7266826029078963
H              2.908985841446723              4.635616271567269              0.7193871399854666
H              2.6767986572031726              4.278539628081282              0.11239010745346999
H              2.6495440560116363              1.449252465157395              0.7322990873616831
H              1.9368702875184782              1.2632461925631715              0.7090474162011239
H              -1.4805904909917826              -1.1885847204964728              -2.2328056162644976
H              -1.195833975421681              -1.6780607949487178              -2.574523015396849
H              5.199483510415637              2.2863461352505783              1.2087635087972441
H              5.18985054153019              2.701854625865384              0.5706941320635592
H              4.417657770859059              4.838652868829992              2.9796184200780695
H              4.483180601628358              4.150846559393868              2.9589871158860164
H              3.0522412963466037              1.5860698456308615              3.6086924421768836
H              3.0584683411568667              2.271756653639685              3.6478881990790257
H              2.969975089854462              4.257556043085544              0.6084273237119536
H              2.313413407426088              4.14599553245377              0.3780063282059088
H              2.2731512095890274              1.384852094497563              0.7159042449785828
H              1.8149251887355096              1.824199333604089              1.0190250034493693
H              -1.1323841383740532              -1.1502204619594356              -1.8792211778917838
H              -0.9795002331115449              -1.3464437243377279              -2.567392050436085
H              4.722624891173355              2.555715429262772              1.0173960035686431
H              5.150353244662231              2.374660103999826              0.42642235295603825
H              4.240900082533471              4.8441554078556734              3.001801310424793
H              4.732992784533775              4.24607089627528              3.056517592269314
H              3.321064325944677              1.5756793114959282              3.6954904854494672
H              3.367306277459411              2.101050277556776              3.1176865447093056
H              2.9956038394471056              4.38017440397513              1.0333919059654406
H              2.657403414971487              4.30277287432797              0.4323405512882791
H              2.2444650520521003              1.3703884155223092              0.7918433868157098
H              1.7834174964405145              1.9910846157487012              0.6293391048478617
H              -1.1679159712301455              -1.3831639046227975              -1.707551025112673
H              -1.0706366100523688              -1.2789680186424868              -2.405630393900962
H              4.8451260907012745              2.0834947084581326              1.1193381028117548
H              4.83077545563889              2.2076198444818957              0.3667625210976739
H              4.262602654540136              4.623042738576982              2.807853936310722
H              4.553652635894101              4.142432545332519              3.3090638436593833
H              3.6338069280477634              1.6686603791120502              3.7279094352867768
H              3.229611763713704              1.9526287898145673              3.2768400881530138
H              3.1178687095533517              4.579408812326115              0.9577114161566785
H              3.113432378016046              4.429033644128478              0.2103900046794511
H              2.2632610328898886              1.7674927840367707              0.2609942185003725
H              1.8470178955440804              1.8539361303193937              0.8492964531524041
H              -1.1238229295015616              -1.366601310241833              -1.7088718645703962
H              -1.343432660006502              -1.3608061587986149              -2.4626955466859397
H              4.97799593476201              2.0286906296679152              1.5322275540420613
H              5.169707296398326              2.3807878725863754              0.9326789785620763
H              4.49125541400445              4.64934199070685              2.8524039362836326
H              4.610900084393951              3.955138125813973              2.764561285431997
H              3.610242021125206              1.6613089128973917              3.638286588755804
H              2.996910544876847              1.8661337435550214              3.217112106306885
H              3.309750324920603              4.537663172430817              0.8995111695946323
H              2.8061468105266147              4.361930925207118              0.32593457439942286
