72

H              2.1690349344363757              1.9850987161958742              0.4734056886203622
H              1.729571099886208              1.8887310663563617              1.005596434930246
H              0.09841421164549582              -0.11972787600923163              -1.9121312253515046
H              0.2633450945357605              0.31797459513316334              -2.339485256772379
H              5.516673133304165              2.405776750701721              1.0986801981864622
H              4.917385481642226              2.4303369066346465              0.7555820604783765
H              4.234306321408679              4.654177498894399              2.9516017574243407
H              4.09506812033601              3.997397325371287              2.6880146818110253
H              3.5676739085331297              1.3476113827778062              3.1762026299662773
H              3.418017112913425              2.0382668124898538              3.0837995401292626
H              3.011666620412946              4.123700503283068              0.5306544546143966
H              2.695693050075893              4.7570052389500495              0.6967463504696413
H              2.284090758875507              1.6133753033754539              0.6950411732378761
H              1.6250957799174819              1.9082948086626217              0.7483093659803054
H              0.2265791404604571              -0.22152242908444114              -1.7986898731736636
H              0.48604109961291353              0.44219394708985904              -2.1631025747409733
H              5.05168357494455              2.2871122705044455              1.32733637011906
H              4.745532336565772              2.5003984444396927              0.6227007673873954
H              4.380791273228687              4.320109674524404              3.0110047394166752
H              3.851200811982721              3.8963983128935435              3.1872010142641143
H              3.449794935302987              1.3071794900262774              3.2202487556231474
H              3.4051519934744516              2.0287681720316684              3.2600929251456408
H              3.0833905558348884              4.168805787432808              0.15535302758828468
H              2.8418512515713923              4.358358601425365              0.8388872332131724
H              2.1587385119933358              1.5304866814500122              0.8945448873575671
H              1.6118922446214663              1.9944409532062655              1.0662613649480681
H              0.2905564394221529              -0.3853869220794621              -1.6037460833721433
H              0.4197822012981589              0.2546321979690039              -2.056063247006421
H              5.355599237173384              2.4308126174707323              1.5209105058460515
H              4.972366646566635              2.3015228596769424              0.9589980232334158
H              4.529694158954253              4.544945672869068              3.080789037900695
H              4.06078671207813              3.944748485914505              2.9790206731100826
H              3.2778684332156023              1.4340025324189078              3.3114495078018287
H              3.316884997016709              2.1781592396394625              2.9671716340455148
H              3.3326309709832187              4.316585482630844              0.2356482000979804
H              2.9934050899272746              4.612180720911958              0.8640515633686572
H              2.3077098333867085              1.6648255125897087              0.5725015577171422
H              1.7331675155523283              1.8623689194519513              1.092088407394948
H              -0.10258082705036788              -0.4495111652672935              -1.8513356851015685
H              0.018615680022294825              0.19138607370266114              -2.013246387150011
H              5.472874129109783              2.498576968071794              1.1544032388952303
H              4.918831915557258              2.1995325382627056              0.7930246020148924
H              3.933045963779733              4.758167065205956              2.9960289432954177
H              4.265013595961027              4.108419120614613              3.1291783398485205
H              2.9075015467516443              2.1457929304022203              3.1080539046493096
H              3.566756041646352              2.1030890163862597              2.8318803528464565
H              3.2914598386072984              4.249273658430524              0.09830541064247073
H              2.876142472167205              4.527346696964096              0.6957531804538067
H              2.394924897833136              1.6705643693951628              0.6568352888100001
H              1.815626002524389              2.045031951545603              0.5476001166064196
H              -0.17626684926553224              -0.582914587351559              -2.051299138408449
H              -0.06948970939366199              0.08988801969471658              -2.334085545781648
H              5.341097190175232              2.3913571543397683              1.3323289368335045
H              5.064361285985618              2.161028450156939              0.6989375501118253
H              3.897086004589511              4.857503356464333              3.038854497946787
H              4.1657522883197755              4.139335634904568              2.987346097428256
H              2.9546537671045043              1.5450648481929676              3.3536064400509895
H              3.3648575285148725              2.057241042127752              3.0047726429216395
H              3.084051272678254              4.257695171833093              0.3702676052654484
H              2.5595316292640344              4.82093948018936              0.5736775976157474
H              2.4731857447780494              1.6386549685219993              0.44466944472352277
H              1.8918541039796302              1.6528035767655185              0.9848698713772653
H              0.19077292271833704              -0.34929857278376114              -1.8749166324184388
H              0.10079537407655485              0.21267475526027302              -2.3939483620807818
H              5.424801606823992              2.259865246125679              1.2312895222707696
H              4.733977761414683              2.4091599484185537              1.0366099400861297
H              4.249939005691237              4.602946357435207              3.1659470902334648
H              3.976462612349877              4.203186251242197              2.6306565233292707
H              3.298425456289203              1.476945153735676              3.395396560246874
H              3.14534754019538              2.114992436964666              2.931071963409509
H              2.9254516610830392              4.217525533325298              0.4970614574885338
H              2.5208547058308324              4.8225299107005375              0.5274639098415356
