72

H              2.4340995855642764              1.3397875660925533              1.0654811204687564
H              2.003720909642271              1.7553107134672108              0.5521526499747464
H              -0.34605878182306              -1.2625014019593979              -1.9660062340857392
H              -0.5726747324906161              -1.7697411943225365              -2.3523711523557442
H              4.978839466527797              2.2485525987793427              1.6397899483883729
H              5.198348659917225              2.662111114825205              1.0933161059523164
H              4.20123879627664              4.816763416554899              2.753712533822555
H              4.1350388308287              4.1092466428953305              2.907678846424732
H              2.7332865402058686              2.1331586887797327              3.686892309587887
H              3.02786593215709              1.6903632560623967              3.0386062376631084
H              3.0228459235117446              4.460274655363337              0.0007276431867849989
H              2.7506601864320546              3.980501145023992              0.4722433511432491
H              2.0700761907718364              1.3398758655237981              1.008268198990493
H              2.222136984012072              2.0372464937919825              0.8731820224163073
H              -0.3686020403242757              -1.3358101245399545              -1.6943980296571302
H              -0.8057476694518179              -1.4996270682243646              -2.298779738112583
H              4.915995379275069              2.2744089807391124              1.504959552092874
H              5.175713872033419              2.9133531721866714              1.3555350976922953
H              4.522880811607698              4.680712186427436              2.5443468933587097
H              4.637940905284829              4.323002309548231              3.1416286098941226
H              2.5767997101589475              1.9813877809320408              3.674482258113898
H              3.1913967947412414              2.0207393334107797              3.1785329768772135
H              2.892583162038525              4.592539349673839              0.3593364254299347
H              2.7388599770605526              3.8951255315619973              0.3860674589301867
H              2.3175015507530525              1.3677165876909119              0.8648192866887408
H              1.8702623093085502              1.7984440137989144              1.2644446727363223
H              -0.639730795796012              -1.2875270492415012              -1.6505588006785952
H              -1.22794678519239              -1.4277808732730537              -2.0782116922640714
H              4.7327237936255315              2.192345605865055              1.0173670679238298
H              4.983056534853132              2.876957320996774              1.0196726383802515
H              4.620192285425278              4.770442686476024              2.604867188783129
H              4.515728661533197              4.42387065028759              3.2528262647234456
H              2.901525548189815              1.6744913292903276              3.8100667247183266
H              2.823470687230358              2.0488907121564384              3.1656063723865966
H              2.936015665542232              4.659994342059194              0.25742317378659646
H              2.784591031537391              3.953279525407762              0.40158927432420466
H              2.239643465576036              1.6153720958484397              0.6909727735564061
H              1.6800839378451518              1.7495672586300564              1.1494829685300054
H              -0.61737426582006              -1.158855322324705              -1.755278070263713
H              -1.1998154471035398              -1.2990776599342262              -2.0655933705263623
H              4.886465989576639              2.1279956537318117              1.5012293213120076
H              5.25104335935081              2.6172337368283163              0.9815683420668221
H              4.514333194478218              5.035687372244956              2.733353363830438
H              4.323348025024416              4.381988282225584              2.9844719632189447
H              2.593609397299826              1.6978093408625434              3.958434777083867
H              2.7612062667105968              2.1047043287375997              3.228581485593084
H              2.9530935945356673              4.400206760496018              0.5276432393443568
H              3.0392371169584163              3.743012525027032              0.4185914219885659
H              2.282646034456993              1.3400353937050382              0.9685015639205528
H              1.777375103141692              1.864394136289276              0.7596663408220067
H              -0.44558274312785806              -0.887029610642407              -1.7031956283939196
H              -1.0314958065988364              -1.3817263916624967              -1.9888659559877944
H              4.785687118438176              2.372049869151064              1.5239054334674131
H              4.995791115811135              2.814343335104047              0.9745241020497758
H              4.454428802675293              4.94444954259556              2.452885568783302
H              4.481544065358713              4.49987608228041              3.0119735237701026
H              2.776896444487268              2.0480911012926772              3.8034596726084122
H              3.0546564950460895              2.550054148407951              3.3132253315986553
H              3.178026405794535              4.479188040222312              0.6193028049320932
H              2.7334707812133505              3.989614939449263              0.2685162736940408
H              2.3488527022099643              1.3391540017095498              0.8483627358988636
H              1.7069262417963955              1.7524541536470968              0.8212604100804446
H              -0.5173050286513391              -0.9645490722761866              -1.8730563442807688
H              -1.0013622698352223              -1.4505958684102174              -2.177624752107353
H              4.600269016524102              2.321920050191841              1.3483379863744647
H              5.121097663983271              2.7372349627417787              1.0300069418020328
H              4.001975413111143              5.1127574737624375              2.562502980043955
H              4.344454104557139              4.443692984751101              2.7552517760976682
H              2.9997985570770203              1.869012547721805              3.702270970433767
H              3.170477751880574              2.0974197202847353              2.976464332249452
H              3.099541127565635              4.501015812888454              0.29705207318344273
H              2.606829181687078              3.959845685737351              0.5178533117528373
