72

H              0.7994877685923839              0.9812030542451102              -0.4676611872881012
H              1.509944000090588              0.8349121908496767              -0.5343508965865224
H              -1.3011451893134132              -2.0406705342979112              -2.441756427036241
H              -1.643826886460933              -2.3559043530262924              -1.874473206067177
H              3.482775231756902              1.1269134617032126              1.2036818024345022
H              4.238867936617497              1.4141423999886908              1.2725313829908032
H              3.7739685595598433              4.097911183363386              2.4488016852061896
H              3.744248196343462              3.9891019206751874              3.1807269846513866
H              1.3435702176162143              2.0561503263454335              2.753969356495754
H              1.9946404439802075              2.2372312349999888              2.4146659400876556
H              2.5001547213323296              4.011056417803736              0.28221495102633853
H              1.8701927644693543              4.003773669647031              0.626798024575366
H              0.8476205229915549              0.7937931258531513              -0.6802708339724517
H              1.1905472261467172              1.2285004886162323              -0.18720186802480723
H              -1.5260209239110865              -1.8272823755504937              -2.3613878739719896
H              -1.7355510529843277              -2.4173935890013887              -1.7848993861784581
H              3.5795663012322954              0.9868122677152448              1.1698319426894375
H              4.02987975132139              1.6067322772034742              1.0586034483996047
H              3.620077714306299              4.32909525646201              2.4325286223992766
H              4.174479680634681              4.2359806793310035              2.9491819881997885
H              1.7295998795401517              2.0589222629604023              2.9995184525046117
H              1.6265592983041237              2.032882529614191              2.29608876346296
H              2.4292849532075285              4.18816708852679              0.6434413763523353
H              1.7006291531169153              4.1077790973004875              0.46799083321653995
H              0.8925569371453645              1.105384272008047              -0.4120862384543942
H              1.4370833303944799              0.683279531886521              -0.4685475147726798
H              -1.6474443602964601              -1.7874790659412716              -2.382700713956948
H              -2.08270699057787              -2.2104028873895905              -1.864281238291741
H              3.5245742123960997              1.0487918830816385              1.0605934132425117
H              4.060141298977304              1.5904464253889774              0.9242896605943841
H              3.819559983343346              4.373422134711165              2.5079901416522543
H              4.125558971003376              4.037163051605761              3.1311656993137014
H              1.622457519651109              1.9401352899724267              2.739119507316772
H              1.8404653702706615              2.2868023789098233              2.18928205363315
H              2.4487191692589345              4.230674144346246              0.3862376991025421
H              1.7870554186956717              4.331884057363226              0.6991049359560757
H              0.7105131680438462              1.0346955582488346              -0.08604578278635923
H              1.2877079732231083              0.8010852734731153              -0.4176472902505346
H              -1.2843872663227818              -1.8624793190925664              -2.211439133285469
H              -1.7649220840573239              -1.9121600340414042              -1.6966616325105874
H              4.007445227148983              1.009937359053414              0.9677845192335509
H              4.093810515818549              1.6271721868959088              1.2405505259801806
H              4.038828629133415              3.9236236334907844              2.5130509649767996
H              3.9207241667727977              4.13800661402261              3.242089950759082
H              1.2278731037375963              1.9556331566139409              2.918088672843425
H              1.5471550924208997              2.188330506805267              2.248265001199966
H              2.313528325155596              4.345892977968646              0.10662462360139406
H              1.8961845747142547              3.971570112973842              0.5616750433051848
H              0.7333538682622194              0.8061381875028264              -0.2661399893326362
H              1.4206052280779549              0.9830304471692013              -0.1029541756290846
H              -1.1925579921693918              -1.8426528012447725              -2.250255398624107
H              -1.703840875221962              -1.8796863593388893              -1.7460267380834604
H              3.870907148782378              1.0940336818380243              1.151887681280671
H              4.219819622233532              1.7531189994435734              0.9437969828584555
H              3.9645073270881293              3.9958391066412724              2.3638690806381084
H              4.0084361392342895              4.261303600621823              3.176121738270379
H              1.4964330488922077              2.197553321369566              2.8837067190666983
H              1.9761984934113805              1.9613664679117062              2.4100678876596766
H              2.708348430921866              3.931924800630787              0.10126651749596113
H              1.9324384161198644              3.8898073141745355              0.21713408360148773
H              0.8411813552055677              0.7116166513174017              -0.26136316377403324
H              1.1995595217085766              1.2064578075123311              -0.6407771367374766
H              -1.3166683495584917              -2.125926857216535              -2.3404382433010524
H              -1.695121471081052              -1.850607431482622              -1.8633021444013136
H              3.683504618642908              1.1860714327400972              0.8760602011167495
H              4.156183859759613              1.6674905504949062              0.9067380088573287
H              3.5715411751337736              4.067514898300282              2.431396295959924
H              3.866952112996676              3.9770823721706545              3.1369668489598697
H              1.6501990654872982              2.044814066379982              2.9771098865665184
H              1.7900633476411136              2.2529279677058276              2.2138474412399054
H              2.7021694857729033              4.030765795245282              -0.02935840374409019
H              2.0939932409331603              4.025841311285045              0.39516783961550095
