72

H              1.0464620463240297              0.6690434034887577              -0.5066304115068876
H              0.8509030094882689              1.109122934021852              0.06283444912576588
H              -1.6156553905076843              -1.2413232075958354              -2.6068470939241988
H              -1.1840055865996546              -1.51913108880341              -1.9469821228350734
H              4.128331701495346              1.4929267722944126              0.7957724359238207
H              4.497326510522854              2.1279558717208458              1.0641153237312406
H              4.084343340594138              4.5914050333851515              2.891220738536091
H              3.5386358365472197              4.057338716998748              2.826601007433261
H              0.9979233702173539              2.4415742370298164              2.8520081185489343
H              1.475118813535637              1.9173774813854048              2.8065222068720574
H              2.0846033247774622              3.943086009767706              0.35445340620398913
H              1.471930268637373              3.9417713842955395              0.7248580928974147
H              1.1830399462999344              0.9188008735730446              -0.5438200313595781
H              1.083220485526232              0.9653866989530522              0.24743096936853706
H              -1.6396395062016655              -1.0088431343761344              -2.3480409663978565
H              -1.3179651584793675              -1.5723221711865172              -1.8977900088398028
H              3.7577015976956436              1.5916541767051966              1.0568836874556151
H              4.127336239152461              2.2199116737684625              0.8414352989375693
H              4.246600299297754              4.611422308502613              2.851290825392047
H              3.954539903459604              4.066385912355815              2.484745570124171
H              1.4701314591641774              2.4931684898152793              2.8926356870504053
H              1.5559704499757412              1.7268370722752076              2.746571186552336
H              1.892567271496056              3.7476613422646077              0.6404867437369482
H              1.499108516029008              4.276652373880644              1.051921132039286
H              1.339336670917724              1.1830666499439044              -0.4107328458226279
H              0.7971260409572805              1.004411589622761              0.12385490489444309
H              -1.7348269761772828              -0.9487111542177559              -2.1888532784642116
H              -1.7356224536163851              -1.4661476754645832              -1.6866853182915207
H              3.697923453656386              1.692279222028829              0.7277971268280305
H              3.966621991353823              2.2698657905295856              1.1159633350684188
H              4.171585596464249              4.532064634979387              2.779131522258081
H              3.8913777982065785              3.805741758623032              2.595364864415191
H              1.4174541542524433              2.452664710265971              2.7205966064244986
H              1.5126353808414152              1.7282093521537045              2.446831121011959
H              2.0863239892386867              4.013918561697977              0.7970912510457285
H              1.4094861707135582              4.19246743475641              0.9861077980577145
H              1.2255193363570964              1.0579027363027171              -0.526247520463979
H              1.13456392585377              1.1081292283040127              0.15766950822593093
H              -1.7730388777738217              -1.0658126651708915              -2.491617995596695
H              -1.6326963764202589              -1.3479872306172778              -1.7072253704284917
H              3.8194692383988214              1.678500150011313              0.9045290279705605
H              4.3376799903589065              1.985348274106836              1.3396561784408512
H              4.118797335937115              4.384127601166231              3.0607608202497
H              3.7047927597454455              3.9447097144362897              2.5653421869090915
H              1.1614041097569094              2.361935370570043              2.424087404446829
H              1.799577466184575              1.9979520599805283              2.2570175042929876
H              1.8841999456003633              3.863434082282075              0.415298412385793
H              1.5091359575070447              3.9445828374861662              1.0375331381532271
H              0.9463795273170148              0.9044702408338691              -0.17968376949101728
H              1.2416343744600018              1.5566290925871689              -0.17482601772198791
H              -1.5213597463047903              -1.1838965660055338              -2.403074853711968
H              -1.3721962627608228              -0.9537971640668491              -1.7340710541289894
H              3.868634799491553              1.4875738880291087              0.7290993761408266
H              4.2828709411496675              2.1434641130781222              0.8468850655980493
H              4.171921156113548              4.643673669810202              2.9432325804613395
H              3.6990132184383944              4.043715180689466              2.555474026714066
H              1.3322217067899824              2.4172920143121686              2.6528843156144304
H              1.6822273488870068              1.8585553135833992              2.5878498772076117
H              1.7854256499309864              3.647384738711888              0.07027450486822455
H              1.5996528625048065              3.9822975788935144              0.7844986986842641
H              1.2321169125693894              0.8060085438552919              -0.4512846395562936
H              0.9381146634190775              1.078004806147545              0.21112277848230349
H              -1.5554591540493268              -1.142231280447806              -2.5398901269222525
H              -1.4932050339382583              -1.322953911053538              -1.8903662770634568
H              4.01306625318355              1.5475746564872201              0.6826192941655284
H              4.393584909494535              2.0898813672557264              0.8590183905290582
H              4.11949207532152              4.688419422067961              2.883540062433989
H              3.6186816029515603              4.113182598041713              2.78110700461508
H              1.4873982356530466              2.0604782491498135              2.391012104251057
H              1.6538155261812315              2.302388307540751              2.9877110523445607
H              2.221530744077328              3.8003777975719264              0.3090092246718403
H              1.5609311568224782              4.093628595877734              0.4942430893059566
