72

H              2.376563957046111              1.2787996285203613              1.0062664810468007
H              1.879835980649973              1.8895434763720353              1.0463455604518288
H              0.5458137502864334              -0.9355800264140575              -1.6954916240313886
H              0.20203540587178345              -0.225608692206539              -1.7945229645384486
H              4.665702062165277              2.346556042696241              1.143962575497868
H              4.92133355103699              1.8091555738252552              1.520199159890011
H              3.7409128030652337              4.606012757900154              3.1728057040474953
H              4.521400740006363              4.689432874452895              3.0654271075544695
H              3.361711255454157              1.5968106698522944              3.041655029485214
H              2.9986458206151387              1.8378205888736725              3.6929684277443795
H              2.709322860919194              3.928444768785035              0.5217391609332903
H              2.934640845628815              4.50947648466131              0.061810019292710676
H              2.5991516501202345              1.5392622284447757              1.13655083964058
H              1.8952787751325453              1.6313456134760929              0.8016179381853983
H              0.952378645876275              -0.6858459215691052              -1.9135091378667248
H              0.3784969773352555              -0.35143599251255336              -1.6862919655067823
H              4.891424139502409              2.408302682206526              0.9127643778117843
H              4.893958557973101              1.7823734434445118              1.357064781750974
H              3.6876428624873934              4.744431698302567              3.090532904382547
H              4.458834438852347              4.907227668024794              2.8474367693521674
H              3.2663436784196027              1.7305815606734016              2.947926902698327
H              2.994788422286463              1.8686224645539515              3.5372755611869104
H              2.621187621706419              4.118861225691888              0.6523131836097502
H              2.9170583750374113              4.531922779259764              0.11140857865129966
H              2.2750385709956844              1.8594252697780729              1.0101603949128706
H              1.7670215790179578              1.6295648695162077              0.5068310641535103
H              0.9910675609951171              -0.8487687493921622              -1.9559685315697972
H              0.5916611243785644              -0.27399673334088526              -1.7546788960041415
H              5.12956735562996              2.508459122750761              1.1514147303738191
H              4.943567495044712              1.7560945187378965              1.1914459254344785
H              3.7759017150977776              5.038545410512219              3.0997606243141087
H              4.3279470613516535              4.699691440698564              2.8337215420564417
H              3.38667194119647              1.619857881841347              3.170736839702279
H              3.085418177534096              2.105323179177858              3.6097569322310803
H              2.748824800693084              4.0108422146534135              0.58462621235939
H              2.7633669589139513              4.627940028806323              0.21628412006460063
H              2.583088355788961              1.5269386959216753              0.6804485504096652
H              1.9316022682976142              1.7596237429483415              0.6402301665173246
H              1.0242124441308469              -1.0788643680892323              -2.2316514966391225
H              0.6562669504442841              -0.3206053616554243              -1.8732404097919075
H              4.902672024369561              2.5697717844171906              1.0597349891747874
H              4.795079017754407              2.1721036855013707              1.709379721596124
H              3.8262251745489086              4.878229074159232              2.848246112372925
H              4.439323610243949              4.549474255034801              3.0646044853122
H              3.379262573671959              1.3660430301385926              3.577843603375741
H              2.9932145006713844              1.9254163248747846              3.4597985436960834
H              3.1412686064681705              3.768635762656532              0.3849321393410153
H              2.6826181491117693              4.306041764012154              0.18749798385291247
H              2.4202313922503307              1.5562096441143265              1.147901764314125
H              1.8315123788516658              1.497398658160974              0.6621087046968683
H              0.8949839509334582              -0.9520437013426095              -1.8448364814634604
H              0.807901615555433              -0.3009084881727292              -1.9310815544079036
H              5.051413631437882              2.7068438182334744              1.3192814613322856
H              4.9203280381470345              2.0537529546273214              1.1467784715072158
H              3.9914280881495023              4.6336346490661064              3.181026080924294
H              4.646280706798514              4.439728703752016              2.825293527171608
H              3.0577499942016977              1.2383076163649154              3.4889787105738574
H              3.164838485704204              1.8578836459883767              3.6910487263369136
H              3.0456358431563304              3.7893168574640335              0.7448604297168522
H              2.6470289424879163              4.270751305578998              0.409843626866464
H              2.3380073078809103              1.4128808925191383              1.1033899923702706
H              1.9004910568916626              1.968361954336667              1.0004450788930035
H              0.7784599038171938              -0.9593103424127927              -1.4463276733392139
H              0.5497576879234475              -0.33717681186898113              -1.6703745339522638
H              4.766085257288001              2.553044852596895              1.0050673209126355
H              4.886758490925162              1.8517293931124106              1.0636884664435307
H              4.08287131995897              4.207078040705033              3.3820151806485463
H              4.515713352112586              4.5463740291526324              2.86442569237277
H              3.4299551222789866              1.6600242118112698              3.637201219626948
H              2.8334374388884456              2.03621022441651              3.552063328031888
H              2.8306916729089546              3.989282566923407              0.8093329482969772
H              2.8560749099496174              4.28018552289291              0.13949562135737678
