72

H              0.7179326775202142              0.755180220463163              -0.41231288265815097
H              1.4978853274641208              0.7925934641118716              -0.5125450248363075
H              -1.322438738057091              -1.5967239965245266              -2.4867510592601123
H              -1.4793556026089676              -1.9525368946768333              -1.8336481444252954
H              3.8375412023535964              1.2546465111711507              0.8917890291424211
H              4.081127486572588              1.9009932731630883              0.6560771117469448
H              3.978926533832749              4.39999045490861              2.3527663375013756
H              4.072471673338892              4.260858519549179              2.9940707552975994
H              1.772422693228              2.1907301816985623              3.1530168876868117
H              1.6086008752654903              2.0112595622755625              2.371438056720591
H              2.4867709209862174              4.098820539730598              0.23580058634484397
H              1.9597641553127896              4.339620284868355              0.636447029743418
H              0.8088422083930945              0.7647709705399132              -0.38957611948524745
H              1.6018411254302212              0.6878844079122479              -0.5458936268986577
H              -1.2809907442138668              -1.6429375925314655              -2.340772816114159
H              -1.6518020004198266              -2.0564794631746666              -1.6614438413851942
H              3.7461905625130463              1.2412670331659752              0.7708256381314851
H              4.012649324134173              1.8956558949659534              1.2308156910246462
H              4.04966584698075              3.897425497290504              2.512955871830446
H              3.911717516997716              3.9860347189935514              3.227853024235025
H              1.2654692795056117              2.1915368521995835              2.8905633744909824
H              1.771219986987129              2.026255022967358              2.401437535313057
H              2.5624940227188704              4.258325682006102              0.3436521339140581
H              2.0210714625309767              4.039481440735444              0.8130322027720966
H              0.927751028056933              0.7205695138182359              -0.3619827528367778
H              1.4952402320798113              1.1836048894644209              -0.14650186228649498
H              -1.3314222075138273              -1.8167997411369738              -2.185902180562344
H              -1.5487076353227445              -1.9607461344998331              -1.4565077766749714
H              3.6252209248769005              1.253929513088789              1.1617387334133664
H              4.137230260827032              1.7266992637878533              1.1763823879893454
H              4.0123328184483675              4.0264605212959514              2.36309547905839
H              4.0142457425293445              3.861575003859472              3.035831951141313
H              1.3087509893642495              2.1093854530029503              2.760308233392403
H              1.9009387878511317              2.015991128869894              2.2938910856911034
H              2.397755710047357              4.355772452423055              0.6933622285447432
H              1.840886289512291              3.901476512583868              0.6855199290528763
H              0.9906621188439106              1.0545841554460733              -0.5718762634696473
H              1.5953716536052645              1.343650539197712              -0.2721610246640899
H              -1.6110719893149466              -1.7159596812808349              -2.1918379188004766
H              -2.079433181143386              -1.900274200901706              -1.6133465915196992
H              3.2641304534042948              1.2734619306313752              1.0663457972948551
H              3.9347624504289107              1.636636486401812              1.0014266964614824
H              3.813170365508286              4.353175502558546              2.429731502339572
H              3.993921958693953              3.902290522768041              2.9680729184117634
H              1.4871979957440402              2.1748970979124307              2.6086370888549157
H              2.149207779739638              2.049704598925894              2.416475320103946
H              2.4340925421621744              3.91288301771227              0.5881093286205735
H              1.728461322636662              4.0122100173431265              0.46225263352804735
H              0.8908871271151956              1.1647413517158574              -0.6509560170546516
H              1.6114412913323912              0.9342973820282316              -0.609994580196703
H              -1.6894356321420003              -1.978150338346727              -2.4975950674305296
H              -2.065515628885041              -1.890092394864065              -1.8972471289745734
H              3.7660867129534994              1.1229972676969242              0.9466767861806782
H              4.269747266579975              1.542800568283679              1.1903600808345727
H              3.6843381273312157              4.535622902363462              2.4977824550264773
H              3.6610025599809664              4.020499176588791              3.0497517881383063
H              1.3358592196630361              1.8417152835196062              2.6281365666748244
H              1.7376268141654234              2.3998367848824222              2.2928178450296226
H              2.4125386615434135              4.135332923868304              0.21663186866253054
H              1.688128232638087              4.175849806587146              0.5157399907691941
H              0.7063125022870244              0.8800475918207671              -0.5261088790018923
H              1.4931835087593457              0.8882978685879953              -0.5853308730128647
H              -1.4556665983032882              -1.6789772902292335              -2.6358281177239427
H              -1.6287891524710598              -2.000649540462253              -2.0412786472396527
H              3.901280524645808              0.9485369394945686              1.0121425193069034
H              4.190038676218009              1.651420344082157              1.0377877467117738
H              3.9211360334427297              4.404140539247503              2.4938770243055135
H              3.5711691392755336              4.378965803514639              3.1273719064287384
H              1.3689255913156744              2.0888773815025186              3.1380319674702597
H              1.618458059472396              2.152423784518495              2.3378598813377587
H              2.1800252415790626              3.8898419329607483              -0.05912019732501765
H              1.7715788949103406              4.026683069121691              0.5487077511431993
