72

H              0.9548970922112269              0.8383056383329398              -0.2790815808574429
H              0.9444105927294146              1.3896059310824933              0.16320347751100395
H              -1.3607066924415157              -2.0871412146403236              -1.995623922310522
H              -1.9929281095996905              -2.126478339270705              -1.701344431251507
H              3.6101066031854905              0.971688073698369              1.1361502299836372
H              4.116672671115725              1.5103604181981631              1.0099911842379194
H              3.795451711506401              3.965034530908165              2.674433253008588
H              4.369009119321419              4.119029141845827              3.0343834188850267
H              1.6006783058874512              1.9427211898433783              2.9116842760350283
H              1.69523963366195              2.2069308372936214              2.183331754918967
H              2.5445996080977173              4.101587717650362              0.3443600129939272
H              1.8826432264687116              4.011634132941591              0.04683431977805161
H              0.677707815260071              1.0350828894304047              -0.24635886102412913
H              1.3158884404505535              0.6752766613161837              -0.18775693430020352
H              -1.2983564431979178              -2.2610152357025455              -2.322261660226259
H              -2.156386191208806              -2.2138622944462267              -2.0121082811002458
H              3.865389549615611              0.8658952222224046              1.1593635948498249
H              4.52334043610101              1.4322229995764086              1.2238073167894166
H              3.6582540256636147              4.009076070969              2.6333755969045165
H              3.8865679377374236              4.145485450840972              3.3318022054693475
H              1.2731616317661272              1.944014130266893              2.527674289663561
H              1.8115398853959441              2.3236974209272274              2.515858821937051
H              2.624410959135662              3.916726798108952              -0.2511558170933087
H              2.0284917033461776              3.9678466809723107              0.1644816728121208
H              0.5238603232516507              0.7530724480167486              -0.35740428893233295
H              1.2179232026918156              0.8143763332520453              -0.26420438798614115
H              -1.0598778290688418              -2.2218084469523327              -2.576878562612108
H              -1.6301806083413246              -2.2860753514474808              -1.9789532092757238
H              4.021080439510843              0.8054236175026459              1.2032405953044532
H              4.336593822733333              1.4428442411274622              1.0254035336716605
H              3.5642055960160706              3.9158196789232282              2.6241214741980015
H              3.7497070084740813              4.322512969339339              3.111587953511612
H              1.8243412019710479              2.1586199529105086              2.933397091061113
H              1.4108242676309328              2.292101753528432              2.300212451525196
H              2.5076436314788437              3.9514049629942645              -0.2819617099200129
H              2.0018036154144845              3.8752867071045998              0.22822724370019826
H              0.6512961578072712              0.9609128768692707              -0.3266369802021806
H              1.2899883350829993              0.7864235059801279              -0.591620946786438
H              -1.1309252095840263              -2.0962371194243423              -2.363813884746942
H              -1.6319761971041968              -2.409679812687733              -2.036777678585252
H              3.5222498242432425              1.2104121934419119              1.2869359043470818
H              4.079385496352897              1.403982996299462              0.828069540789218
H              3.6860611444192366              4.010064441183141              2.612671157252172
H              4.217937527077146              4.2459932496583175              3.027315978525568
H              2.1313666728734764              2.3272166780736043              2.9328080698184955
H              1.6704308794333778              2.0551196143841373              2.3313870531425986
H              2.700493001933898              3.7543939124715546              0.1542910747400259
H              2.0727264994516497              4.123523123429044              0.37427919449945196
H              0.8394252013292612              0.9294512461411516              -0.14650204695612543
H              1.097040606791347              0.7973670198731403              -0.8132813332718861
H              -1.1828363775061912              -2.265433176981047              -2.282920617742155
H              -1.796580973018781              -2.4375578503918214              -1.8042793737646692
H              3.847079081722845              0.9369538660742468              1.136030645445262
H              4.186675774486007              1.548178697330654              1.2092455554619486
H              3.6264079402291567              3.81797370510083              2.7937316942918833
H              4.279402554780632              4.107398010145866              3.0705819784928354
H              1.617700599058214              1.918427722045688              2.858216747795137
H              1.3575862921582795              2.2556438737054374              2.240850555642948
H              2.6097252403712874              4.423068901807039              0.2171079503010524
H              2.109007529926104              3.982864494867828              0.6256936149241186
H              0.8014672263828823              0.8842917435276668              -0.36983214023031974
H              1.3331010125835432              0.9722186927807439              0.04553067708144427
H              -1.3349362896930084              -2.0795691664722393              -2.178005739183972
H              -1.7304229445185668              -2.4465198677278566              -1.713701875336594
H              3.677684671959384              0.844557148340951              1.373487107324925
H              4.241092955781869              1.3366132872149523              1.0989440804651702
H              3.882634758781892              3.7886977076099955              2.7110480965669566
H              4.2769005501362685              4.126722290269389              3.183622390558417
H              1.3231737677536686              1.9948382150974269              2.7372349582861064
H              1.8529905847689812              2.2424615394196437              2.2593709290312183
H              2.4154643729234837              4.3363796344899335              0.46853909431431906
H              1.8606506916614547              3.837672084397604              0.3596560241773987
