72

H              1.1830771929433237              0.8431601918266444              -0.6113481010063119
H              1.0734936603880423              1.2547440432107766              -0.009736563556252091
H              -1.4451203129950214              -0.7979169312075245              -2.433118899464175
H              -1.0152706449323785              -1.3079184028572588              -1.9688855587935992
H              3.9254553948524427              1.7440068447692605              0.6157046342178759
H              4.04589714026187              2.283735794418197              1.1686194292859875
H              4.391949010015624              4.357728814103185              3.0294090593605176
H              3.6809518267888746              4.264002885285752              2.7364542262493363
H              1.3881138604822894              2.502645642957184              2.7743141063919605
H              1.6252576854857226              1.8640499296508894              2.684770525548662
H              1.8108813205471135              3.6827168868876186              0.2551010022805042
H              1.5819947887725965              3.917342926620195              0.953701227126205
H              1.5115026895766837              0.9608467438845125              -0.5663618447533991
H              0.9582689108815048              1.263181543100372              -0.12632837740699238
H              -1.4929534357897047              -0.8847979058103369              -2.226410206870203
H              -1.1510372311361987              -1.40544334971402              -1.8201050805659442
H              4.3492291452003515              1.658323366403298              0.8721495362824487
H              4.432687195903565              2.3932015660857386              0.834192897963716
H              4.393458848710359              4.501577555895861              2.8166873788420133
H              3.8998582816982887              3.9795737658904082              2.678488388095005
H              1.4960597963549287              2.4691021622234146              2.820788247188449
H              1.358628948009926              1.6925804799484643              2.8288983652439903
H              2.1663933488572122              3.873859642442157              0.5314421084483364
H              1.5085407201357017              4.163292570880267              0.8697345836503838
H              1.473156947623644              1.295699447019453              -0.5110346592567208
H              0.8766030275139096              1.1558453518240202              0.034361393518290005
H              -1.664250515687212              -0.9249212973751734              -2.3361434316145693
H              -1.493303863049531              -1.2705147730626802              -1.6371517243971005
H              3.7542187623640784              1.6518919716807543              0.6059365116056229
H              4.262910617728194              2.1442607869181916              0.9634747562577427
H              4.041537140653569              4.248414651939735              3.186716370402763
H              3.8290477854629974              3.7948467753532715              2.5424818204426884
H              1.3875443051517784              2.5246082245752794              2.7276223581209043
H              1.5691625456449907              1.7601881398114032              2.726225486206164
H              1.9821652606877722              3.8977762129254723              0.43660038065753787
H              1.3882445579757319              4.005968905990857              0.8981963668057537
H              1.462909737897454              1.2943075665585306              -0.3571159678560007
H              1.0599533278611863              1.166325416595153              0.252797755352481
H              -1.6364731947596032              -1.1057717972600813              -2.3403909458301277
H              -1.58125140618248              -1.2216202819521027              -1.5237427742608098
H              3.608808087329313              1.71406936229195              1.0112816947800505
H              4.222250807562922              1.9782874937711463              1.096992715096706
H              3.9471867574881876              4.42125994800598              2.999369884716638
H              3.983719692404279              3.9210207547243776              2.431377782037688
H              1.2579614266762873              2.3020399508350815              2.491952573130063
H              1.80869085719157              1.8185520129636898              2.706842379659831
H              1.9346783157008527              3.8657451885569505              0.5713543391346055
H              1.3440473152777002              4.137070029538565              0.9493792173642808
H              1.4164426667132166              0.6531813423851046              -0.1559555700393499
H              1.1692064350935514              1.3226623550378354              -0.18689043082673887
H              -1.8451746619583376              -1.0804799710541342              -2.5252610357116323
H              -1.680857698971811              -1.1549105950335248              -1.8654195271352034
H              3.9324555718674965              1.4944479006153295              0.9050412821523045
H              4.281889239256794              2.136090631364788              1.108545513016587
H              3.904128984169851              4.839214830165348              2.796821068838926
H              3.5613682310370183              4.14093869061122              2.631755526186062
H              1.2892522788301843              2.405400886669426              2.566304874198675
H              1.5992059613799323              1.8037528157525478              2.6909021451273887
H              1.997905729189435              3.6455397657416944              0.38654523378032724
H              1.3810609149703197              3.9780967098744195              0.7232275299011799
H              0.9697169204557757              0.91764069627578              -0.48720357246150464
H              1.1928415242334256              0.9059150591390103              0.1592755441281425
H              -1.8239853309061083              -1.1086978092234125              -2.775340047449933
H              -1.361568495644648              -1.1379413851619313              -2.166531301296654
H              3.9782636316090554              1.6019024530463415              0.7973256985437666
H              4.486595746622396              2.126590491541077              0.7521468746317335
H              3.8672967296892207              4.7491861280581515              3.07713519220998
H              3.721518165534974              4.3868435181092265              2.453399944537181
H              1.3719471707057604              1.9205066186654856              2.313597579555859
H              1.7004256523912418              2.4291967196958937              2.767756923856032
H              1.7672561731457197              3.774263857700088              0.22846436655647911
H              1.5849065629257042              4.241808898473125              0.7924654707723813
