72

H              2.454965340191302              1.4989767498779867              0.7746306885004051
H              1.704954803475435              1.6040994015061139              0.6489187194076551
H              0.12762636723558365              -0.2621167021529338              -2.0071393561149566
H              0.4041236458415279              0.24735040985624793              -2.3304683268402178
H              5.041226970251898              2.2180638043942222              1.251221657076369
H              4.925139614790925              2.6996535001862436              0.6974692447189962
H              4.495384386637073              4.606547067993841              2.967998084144333
H              3.9303322926596906              4.247997534032291              3.186989115892382
H              3.2878344825073103              1.5404154674186645              3.2633478343955398
H              3.215672701289205              2.172384184035657              2.956619644455217
H              3.0121286183085543              4.557140723939583              0.18156071141774988
H              2.7094569796864283              4.425789004579117              0.7957669489060929
H              2.3021053352668703              1.733434106964546              0.5769530637771958
H              2.106990373495469              1.882638325191989              1.2313349822742405
H              -0.12089816383686693              -0.2530378485229947              -1.7350015845395503
H              0.23914675950551217              0.060700844771289064              -2.293779305210083
H              5.450364490856892              2.308109640493435              1.1191826122370494
H              4.91979902866839              2.557278959694093              0.6726391422154657
H              4.533793106593653              4.538028943703572              2.9523463647475743
H              4.04884069106427              4.00502875534958              3.1439676965324583
H              3.202154554529097              1.7719302016362957              3.328347748754748
H              3.1970563460278503              2.212352598200717              2.7502728689985094
H              3.2444832744617433              4.357493832845223              0.20487160511516184
H              2.655034041926368              4.485869881963556              0.6202019246194282
H              2.4249366948676094              1.7316666429564378              0.5431749604035944
H              1.8782513496991906              2.046487871465543              1.0020046797175741
H              -0.41781250129112296              -0.1733177551806322              -1.6889119323908295
H              0.016930334436242422              0.22246111869643825              -2.312830812977658
H              5.128358878377807              2.282646493216625              1.159816694243692
H              4.90457131597146              2.3412165219874272              0.40299323815442906
H              4.189406709881504              4.4457070074787355              3.0175658819288356
H              4.080585175265979              3.7871054179298063              3.335731950583127
H              2.8610798126271275              1.7492694993552194              3.353889965278053
H              3.5796211536503852              1.915239959980496              3.059783861160838
H              2.963544393344256              4.24594056809464              0.060514916245606766
H              2.6050795775169595              4.31813242443493              0.6981388001876975
H              2.2501171759708876              1.8535745924222968              0.5762699270537756
H              1.7890042099766603              2.2823340644023062              0.9037658777896793
H              -0.057696016787063646              -0.2036021943484697              -1.5497926640054172
H              -0.049554209259735235              0.3089191994898678              -2.119230237988942
H              5.028712995256094              2.2618539116796863              1.202222457351317
H              4.703359970586971              2.2025206155258257              0.49688588945432927
H              4.177396618959769              4.524592764657797              3.1780653132130943
H              4.1455061702893135              3.797426865805256              2.903084361667432
H              3.218658036847956              1.335709949397556              3.589227444615167
H              3.2388524614474172              2.017807090300673              3.2359005913859833
H              2.7668444297111554              4.368031728275753              0.12680827144479517
H              2.7928430948175955              4.681066292559248              0.8226579543148793
H              2.2153349835963048              1.8662334932018694              0.46939989376928304
H              1.5695266900628368              1.910854820462871              0.8792843096895389
H              -0.18089232224194676              -0.24885016858165515              -1.8589189283318617
H              -0.043306421938157154              0.42792263499117716              -2.205781464525756
H              5.249613956238229              2.280561461617434              1.2534791824032065
H              4.479515704266594              2.339724478650435              0.9693284338527248
H              4.073759087950695              4.826828662942448              3.039921722365665
H              3.991020158627096              4.10683314648497              2.9781810065660492
H              3.222336730432113              1.5538103078521366              3.073724948953048
H              3.4826329738784447              2.1740064472307066              3.169431069074731
H              3.058882583488682              4.263725437881648              0.19406697772240727
H              2.7330692355476893              4.874857762848224              0.5383258771315318
H              2.3016276086782237              2.1051388678797625              0.2473375571045015
H              1.814302529991802              1.7270592482322178              0.677764260522847
H              -0.01667411651881615              -0.3802242318370865              -2.3645048383655576
H              0.12305064734748364              0.41201421577977226              -2.3064454725140524
H              5.227177377926744              2.5751271291503235              1.095469375381108
H              4.631576051907835              2.3240642025845624              0.8346943811606067
H              3.995032298284286              4.976498597477609              2.8899346212076065
H              4.029239711242929              4.182310912479636              2.9509432615325975
H              3.1455337805456356              1.3973420878154563              3.2711153558450583
H              3.4057705693087605              2.0879076479903187              2.9286090467548567
H              3.2510832436770576              4.247521157956902              0.30207247366390305
H              2.69772218724349              4.638373974483721              0.5486787190717075
