72

H              1.057518631520126              0.5578158625540728              -0.48811477007079135
H              1.534346577479428              0.907510205058693              0.004867925929000794
H              -1.0268664065096844              -2.6566172046589975              -2.0423336998621227
H              -1.7750721677233818              -2.9548021971688074              -2.0881108987538273
H              3.8849749855537774              1.0417706069494423              1.5301430305800316
H              4.547605054763784              1.2412061513340615              1.5381462159737898
H              3.715668947755886              3.54003989247704              3.225815847134606
H              4.207985464755062              4.01166761116562              3.013836636084416
H              1.4204438126707246              1.9980614822730984              2.1989247113518506
H              0.8962804508730301              2.316297003398697              2.512296945045544
H              2.676606680275199              3.7998297494335933              0.02635055792398038
H              2.034798849134527              3.6911152296293275              0.39125281408232115
H              0.901936498159567              1.000513671848164              -0.49811434528444976
H              1.4033393092266528              0.6249177697228243              -0.17010224542063282
H              -1.4796559951967982              -2.4365860231157512              -2.226386645364319
H              -1.7756526783141393              -3.0010646991285457              -2.3043334518115164
H              3.7923529942979854              1.076985969214764              1.5289598938959235
H              4.460443903784502              1.2297320984549425              1.2269653104858933
H              3.6351643239324063              3.8906967110183936              3.1963036005829566
H              4.1865781219791804              4.292509112466609              2.9411459592930687
H              1.6915669936220998              2.0085957336779647              2.59804237981191
H              1.2128802600389679              2.516119685571769              2.434418189612503
H              2.6549182201239887              3.6146656356071585              0.013893543927838866
H              1.841508009421474              3.5928485241850923              0.0340641760937033
H              1.1529158161275972              0.33651809756197404              -0.5653279747522414
H              1.1397556634174673              1.0746574511933187              -0.25832533425922777
H              -1.2712931477153495              -2.447063252248261              -2.4357302436007453
H              -1.9029836296130347              -2.787055851796069              -2.3246245188189794
H              4.044710201264599              1.2513328161762964              1.3760494418534572
H              4.543610473456429              1.4427681913716413              0.9340464457428305
H              3.5952409461379706              3.924776654263727              3.2340359327046206
H              4.214874586886356              4.211534829097055              2.9052448970544007
H              1.7900945821165646              2.245658389955918              2.286282791178092
H              1.1609038257973756              2.516459171065368              2.5264189643336783
H              2.767237496009914              4.073719530919437              -0.12592847906957877
H              2.144170211966567              3.7617288362032344              0.22085987283630407
H              1.3241653151585964              0.7195898677154735              -0.7106880389944482
H              1.1075710223226296              1.0105387001297754              -0.045724847835097254
H              -0.8310729207047728              -2.323689703670817              -2.1761520710272277
H              -1.5422536850020572              -2.741462042672032              -2.290827470211933
H              4.178020466330829              1.0453550004810643              1.6339249872051198
H              4.55629840543435              1.5224150642302743              0.9924849197583387
H              4.006707939114411              3.4566541801555957              3.2839656811021403
H              4.116809069536214              4.117500113279006              3.063099350728038
H              1.361952237189392              2.348485828105364              2.878381164017541
H              1.165507669154868              2.5013368468698425              2.162370357124048
H              2.8343872019074476              3.863630380857764              -0.06690185983792955
H              2.2387366266902093              3.603931798938461              0.2793575517252575
H              1.1164544768083373              0.6971480710336745              -0.6652730372223986
H              1.4537900792516205              1.062331008285309              -0.1312677825865863
H              -0.7092885380742174              -2.569133235041624              -1.921834834637097
H              -1.4314661620461828              -2.4220117534986456              -2.0737229051111896
H              4.076340169435248              1.2495994344903818              1.6038619111224748
H              4.252020822168217              1.6399094161796637              0.9955579325681836
H              4.129204565360249              3.725999517202455              3.3049114865200817
H              4.385304562923355              3.8502774985761503              2.6910535622808434
H              1.7137498789892656              2.331059457520936              2.7086718156526124
H              1.3095709957775419              2.3124246718785577              2.042058163539319
H              3.0463291558312466              3.846341853040793              0.17126545609947466
H              2.372465094519579              3.5714533164595514              0.3162490571468587
H              0.9668738856282556              0.6995165342961              -0.5348779434314191
H              1.2363503174166264              1.3239629980172167              -0.2004485722296981
H              -0.9903620649083523              -2.6642962646061554              -1.9321312104119954
H              -1.7686949828019516              -2.5564906293811247              -2.158090811195761
H              3.5635409432846212              1.4043934268246745              1.412374626274306
H              4.298514824907773              1.279618015630105              1.161044456895009
H              3.8994765865507595              3.527865261150039              3.3492338576607703
H              4.38786518082735              3.8649202767711035              2.9585901940547386
H              1.636265910908734              1.9512459254544463              2.556657754790792
H              1.0458239777906617              2.3222472012993225              2.119248129720444
H              2.9682266542929208              3.6553567401507463              -0.012181916359848255
H              2.381950203830839              3.651291633385836              0.42194645978363154
