72

H              2.2463934969599997              1.2490079121338307              0.9572723736049995
H              1.5677474946819614              1.5203068697226694              0.7876793005791028
H              0.36203355228949224              -1.1882100688251303              -1.915935665870104
H              -0.42192811072762576              -1.1564074728756542              -1.62814450418482
H              4.949854534272518              1.9951836786164479              0.9481973751958934
H              4.829475006915184              2.537361840975572              1.3767355935219194
H              3.897898774625634              4.696579111241518              2.4920542125958693
H              4.001535474625339              4.77051675097577              3.25067699486922
H              2.6673292342666457              2.629299177922846              3.88036726735938
H              2.4306268387429584              1.9403924292470818              4.044024502111478
H              2.8722316260209033              4.312925195598859              0.3527841823122374
H              3.411564628202047              3.789916750330434              0.33637359254397126
H              2.2269657186249994              1.303982688851657              1.279445027349277
H              1.8334525779769142              1.4658182378880442              0.6575531205105738
H              0.3634584352435679              -1.1632630125985015              -1.9930492450772062
H              -0.28275460345910575              -1.0724499942735264              -1.7375248402595955
H              4.887484430425539              2.36385480382223              0.685047288831279
H              5.231160534884679              2.550589647896298              1.3647361593938785
H              3.895937686445444              4.628415665044292              2.335091512314092
H              4.0772203973254575              4.929047994505571              3.0543800191108703
H              2.2507981416917255              2.4509574295599323              3.6406466340888066
H              2.889493090120537              2.511789919494861              4.025367930760352
H              2.6873610250705955              4.376322231377625              0.7004917932972138
H              3.0447028926912076              3.779788520457069              0.5385022612909361
H              2.328487998082177              1.386713363671643              0.7512446719101198
H              1.7095552416619983              1.254807001565966              1.115626564714491
H              0.3587951041160604              -1.0468088602187218              -2.015565557705153
H              -0.3108620705617532              -1.0125776108571964              -1.703819547034572
H              4.5810838890722305              2.314355386724017              0.44763905045309205
H              5.068589358938146              2.389118289189175              1.0755383716177933
H              3.498525178272895              4.461085060411083              2.559337028193709
H              4.007381828174357              4.7102268859908065              2.96316783900024
H              2.5342823700918724              2.668584617890694              3.5964407636690323
H              3.072921470957203              2.422161782191543              3.974938892330466
H              2.4384205028503536              4.367624346012582              0.4367597716035377
H              2.8902696667082908              3.7826486930919723              0.3883951873239248
H              2.2066387647268386              1.7576167914892826              0.9881076131699795
H              1.7587303241033851              1.2181249991121987              0.929125801752009
H              0.46461599014799754              -1.1809418840708272              -2.226919333376276
H              -0.07870407956967589              -0.7571106552944812              -1.8331812088667367
H              4.683749392432269              2.097781469074841              0.7647891960340896
H              5.086944663881634              2.221000455238599              1.472028497243595
H              3.5729453835407265              4.5730916052166455              2.430445810455224
H              4.007661926169092              4.584312737030547              3.007057459210401
H              2.718779683949626              2.2509120208738405              3.638558552735294
H              3.156461329626722              1.877254042072905              3.9463354380483726
H              2.456420341099696              4.444942752756766              0.4296625544270487
H              3.071249810568823              3.986186753966736              0.19274536867268569
H              2.1513477190030232              1.2891821629664026              1.2663396346205547
H              1.5109929623327225              1.4857693138365484              0.9465313678334358
H              0.6739112965090138              -1.0468968471496338              -1.9322527805927459
H              0.2510921956589173              -0.6529471254178432              -1.566439426096918
H              4.898455362605814              2.0590897537881268              0.7008646257524258
H              4.917866723592379              2.1433068173263594              1.3934350331394754
H              3.6951883662197744              4.409090535922436              2.81479312863768
H              4.376127833379067              4.678950435967252              3.0408568674823013
H              3.024292419298182              2.333377677361525              3.2710988606864015
H              3.0070610047403035              1.9936394216725115              3.8817414752158075
H              2.814454747097782              4.7218575516549475              0.428168244715976
H              2.912475499783358              4.05211116845483              0.13974496058001948
H              1.9201302164281775              1.5777702576351467              1.24145724700765
H              1.4400418257127372              2.0032836192546726              0.8676994076813577
H              0.46131733570408656              -1.2188222103946613              -1.6473574793883325
H              -0.08563487899094499              -0.8163081702760708              -1.5084775939625312
H              4.738358418203038              2.253059379398052              0.6251659246155622
H              5.057407643860031              2.1259621000826447              1.2721539516519156
H              3.750621893880986              4.565849737722252              2.823078738305235
H              4.4174618213498515              4.780907323370219              3.0557063830044444
H              2.8596798653723465              2.501410570023803              3.673505455899632
H              2.942611336234877              1.8485511593333872              3.8961283756523333
H              2.988307124186091              4.696812411007022              0.4767238181427886
H              3.228042928555635              4.036221620699507              0.42841757155851695
