72

H              2.35561286060182              1.4114399038168302              0.674918497580229
H              1.7311941292029112              1.785491193512833              0.63234308017249
H              0.7571643592233119              -0.8866326136362092              -2.2173935053785687
H              0.70369893002848              -0.13994514266529867              -2.1454819327371872
H              5.4567482037194495              2.6783918780871505              1.4898912272870046
H              5.077540762476138              2.082030941723316              1.4519404772875661
H              3.9493044443190755              5.015620660547501              3.004928613158479
H              4.364736294817337              4.344813526237374              2.791366880161682
H              3.012127093156222              1.1210787104024211              3.5577757733574233
H              3.4018607427758902              1.7215430171950192              3.1736594195595593
H              3.2318017818142186              3.9750218857067265              0.7613476383430242
H              2.8249095020143176              4.4723810834107205              0.30288501579608523
H              2.4177644446091513              1.3155287379624108              1.0781868168898847
H              1.6780364589866377              1.519516543850545              0.8276232572089015
H              0.7216467942135438              -0.6812269592842272              -1.7441473143672892
H              0.6847747116411926              -0.05642634268430957              -2.043053997877934
H              5.570646177182711              2.6648826972830078              1.4271473827737775
H              5.074740830495534              2.138286271031637              1.1209550073568937
H              4.2316607171093175              4.630626148106517              3.2196754718790768
H              4.497495803214987              4.2002621559747375              2.623305214476051
H              3.2213153544804323              1.3107596686716945              3.6307026824928768
H              3.2351097424856494              1.9209476189560233              3.0383884813997732
H              3.117586361650415              3.876958378446949              0.5228999794642614
H              2.7631269197533843              4.453527687164214              0.744514069824489
H              2.035868861491991              1.5250303388837791              1.1207998284570042
H              1.8666198211692107              2.1170717392940768              0.8530925606163198
H              0.37338892704630383              -0.6973268477410076              -1.4598424412708364
H              0.4534529421942233              -0.10738191567688495              -1.929324660884681
H              5.215040241977606              2.593113969615782              1.159019672601876
H              5.247112492741103              1.8763973168440702              0.8668076192950069
H              4.009566749657659              4.357257468831234              3.2483289632567973
H              4.472998325427314              4.248812525332251              2.7142517668221093
H              3.5532056868886994              1.3381817281994723              3.5294627855785783
H              3.0445149609370032              1.8491947984468624              3.316111494170882
H              3.0171033893054173              3.9507670567860176              0.647106260140703
H              2.7635647297824577              4.633257586341507              0.5331449570779517
H              2.175793121658854              1.2718671352069517              0.748070865307338
H              1.8607682298661163              1.834995136267173              1.0280715182209927
H              0.5167304254149108              -0.7682759017945131              -1.6482749455397632
H              0.19679246322989777              0.006227913421008906              -1.9759020695629572
H              5.074940901168365              2.465790418791921              1.4162721598080108
H              5.007897327573192              1.658584589719791              1.3929169381215114
H              3.858106621046507              4.639176853281584              3.332417253749905
H              4.258150696615629              4.265928970253626              2.8617600860941645
H              3.2812270558086967              1.1132259819012065              3.3123752745799613
H              3.0883103960054683              1.9028388107283638              3.3513189324302415
H              2.943260688737524              4.114931889150571              0.6532819400543692
H              2.748468307204572              4.551108095664955              0.07910098111018125
H              2.3022212756896216              1.5919562910558753              1.0046520103518752
H              1.6261671642357567              1.7269206900012455              0.8273018129393771
H              0.807050461943893              -0.5402391095217574              -1.8476753525285896
H              0.33972680237507763              -0.08864744617867844              -1.8612290550573152
H              5.476554172799731              2.4723550697915764              1.1379512795646716
H              5.19709952609345              1.855485945735862              1.4133155530968964
H              3.8767665414704817              4.861924708655336              3.082198690335016
H              4.392633125896876              4.637954540319831              2.5642333028578244
H              3.462467434350327              1.4428358206474052              2.971060384014777
H              3.0597557048618182              1.7210083866792163              3.4677362423575064
H              2.8488903006824238              4.2063942781554315              0.6980689687831458
H              2.950354331663015              4.903866192721819              0.41074973153632016
H              2.1797507986158315              1.6256863044944547              0.840012194902247
H              1.521559946017493              1.5556002217711085              0.4847543245642047
H              0.7256915922404514              -0.658676067680071              -2.0690123680895267
H              0.5265744468277661              0.025330365297297094              -1.8648130078689569
H              5.517336826986519              2.436860878398019              1.2266665512988935
H              4.977960839425225              2.001440279092632              1.002001806142234
H              3.834152774322919              5.105643161020138              3.112042342251138
H              4.116444718236522              4.481791591488335              2.7838635598201638
H              3.49394154818983              1.2896265224582417              3.11552910503041
H              3.245405604895115              1.9829970392098968              3.3851407259052118
H              2.934384608521993              4.020180163475968              0.46967438756951385
H              2.8456497615688114              4.788856051752419              0.4558475916001951
