72

H              1.4775477880736076              1.5931037959550542              0.18420417363512487
H              1.452465323850504              1.1447729327556162              0.7858052224739152
H              -1.455568805538032              0.015166837999964874              -2.0572973091054205
H              -0.7964479109967756              0.011354759194075529              -2.02309218746839
H              4.364984082725654              1.6603423521732237              0.4399191861949038
H              4.317566793863905              2.4753086925568524              0.3824326661086278
H              3.518884748979192              3.9985719406189024              2.5981451225011534
H              4.032531469126133              4.5343022549282885              2.868946646220912
H              2.0906296818042627              1.7911475330851314              2.713465257783771
H              2.5958763537241394              1.5641762873689506              3.2450246199828308
H              2.244913914064438              4.008547558393084              0.3529798355255787
H              2.0051539530233575              4.489846904555944              0.9349417601006927
H              1.4852789673971174              1.7892185931213322              0.33621942896959023
H              1.1398899889501286              1.19760141154744              0.5665246075305738
H              -1.420044880907836              -0.15150376411677466              -2.36302499681874
H              -0.6612078687183781              -0.10011359921248111              -2.179500691895145
H              4.112231134268199              1.860307802637376              0.8387373351688464
H              4.650887595433487              2.2673137824558505              0.5121623068277862
H              3.3891848817331933              4.06844510357905              2.8640573664703872
H              3.9400429153218677              4.553894435452747              2.9913172581337526
H              2.2053367831406887              2.0181146975746973              2.4782552419315516
H              2.5444419190878813              1.5927573623588838              2.9710253742935793
H              2.4212062287404534              4.237218672523741              0.1677838221891808
H              2.0762038477072777              4.354316779216133              0.8077627050458742
H              1.709665051561028              1.6177586116222908              0.08084979481966788
H              1.2056286085282082              1.2884594511561962              0.5843189166120121
H              -1.070426754786369              -0.30112540388245507              -2.299271599200179
H              -0.3768455912158601              -0.01572162116828463              -2.3209731483971816
H              4.346095978590069              1.7578578320754592              0.854322838568812
H              4.542395543469819              2.5346768564377795              0.6789319899943878
H              3.532123685222437              4.041870525357916              2.812871469697734
H              3.8190094646616495              4.792646026237231              2.9079845941487363
H              2.027036181790871              1.8617764953985352              2.525764972089581
H              2.5181377998820174              1.8732964795822584              3.13452312111895
H              2.4770375140895746              3.9480836775709105              0.19449123883584146
H              2.1086286528696805              3.9169722138373713              0.8499062349816028
H              1.4444704805868194              1.9722361607106322              0.1589538141484129
H              1.328589390220551              1.2079185945082678              0.392722779263934
H              -1.2036989653936803              -0.22300519527590743              -2.3825386248382867
H              -0.5431877397219432              -0.2766971264168345              -2.278039703125038
H              4.703167404309003              1.7616106658740425              0.615427941341152
H              4.6793568917204365              2.510280196637027              0.37103622786035284
H              3.56547044028156              4.306929295887218              2.8634687620077703
H              4.081069097186684              4.752959916185691              2.6592650725828353
H              2.5186779350953596              1.5967757443337807              2.6297099083698474
H              2.310419117653815              2.1768504093513954              3.1548109755865865
H              2.588407864998632              4.044831157118189              0.5477465835924656
H              1.8829848080069354              4.273273264052769              0.6763835108079308
H              1.5816257481369622              1.889005430133509              0.1470198582551783
H              1.3830926209230368              1.2064827913831595              0.23712152339290624
H              -1.4044846231256418              -0.1714817388438885              -2.2433650206811167
H              -0.6705471782143924              -0.44550462172407135              -2.2668162339352276
H              4.134953244198163              1.8127505305708673              0.48589157579691705
H              4.571195197096283              2.3707128238940953              0.7671822843110842
H              3.5450215770264912              3.9930000756852366              3.075702638693565
H              3.990590883523243              4.523261756175509              2.8153715251494527
H              2.114663980779086              1.6451578579854824              2.644981757756701
H              2.394286318082795              2.1019857948649388              3.182072099607398
H              2.2854528399579266              4.299457190685015              0.46362193525202156
H              1.8343801501384838              3.8472213974086245              0.7895139802315784
H              1.4044505801636522              1.6105694773816086              0.08799220226475463
H              1.5970819864575054              1.1918300339107268              0.6960799541838248
H              -1.3912112321199637              -0.16689709811747552              -1.9387301846153282
H              -0.6617872067793545              -0.2895589169700129              -2.3193214156703923
H              4.4258422806205155              1.7154310444805594              0.7601910693995851
H              4.553537599713557              2.4165290572968585              0.7429185121784476
H              3.778033227139388              4.0189435479591555              2.4520631816968184
H              4.094346214647966              4.46368985775194              2.9554901457750384
H              1.982097814681965              1.3079010164212366              2.9867401053918865
H              2.4366063254136674              1.8398915819243333              3.112045206682295
H              2.141887931357597              4.166203655605379              0.466700499956725
H              1.9546918779466895              4.326291244657111              1.16548953316044
