72

H              2.3206121293319186              1.611659971539203              0.5616126105817566
H              1.6453970347988045              1.7091710160417823              0.8392412923487528
H              -1.2202717861249819              -1.2649906442508358              -1.6650093106599577
H              -1.5118165992141577              -1.4416384588321607              -2.416614516115214
H              5.182600974057023              2.1446278808483132              1.4853227348483244
H              5.192472607284668              2.5368632685869326              0.799781707117523
H              4.60524164388743              4.786434303145659              2.797091463130526
H              4.441465515263228              4.074413748302236              2.840917634496397
H              3.0604980697435415              1.5518119127182262              3.87196474165673
H              2.7267997664386208              2.169204444503939              3.5673927410341317
H              3.0395480279495075              4.673717484888754              0.7027945790112803
H              3.0230337593684484              4.141045189067195              0.18655155303394227
H              2.2490196338761415              1.0904302183458805              0.4825687554251012
H              1.6994282846345454              1.5313709559692277              0.7928930847306397
H              -1.0985282936501777              -0.9156776852400956              -1.7690796714893031
H              -1.186622662847687              -1.4697668317980064              -2.2240713793646747
H              5.190112434081275              2.445074428459672              1.4756764805817426
H              5.112288824135268              2.5703658014846305              0.7098349904679725
H              4.516948620915634              4.919152386987329              2.71163765682952
H              4.5711220351136275              4.164590648397762              2.9065670037699247
H              3.113175261384885              1.9882086720601206              3.877015446763018
H              3.0068140248433126              2.4779757818864487              3.426568680874954
H              3.1088150781838295              4.404036292001505              0.7456870431568116
H              2.579921549746091              4.363104868822969              0.18437337325979664
H              2.272299622650113              1.076764244275523              0.8243828026525217
H              1.7888071383788462              1.6360522460004667              0.625239056657369
H              -1.0987264477012217              -1.1097824822830986              -1.8154053735376896
H              -1.1049473783657995              -1.548244426886553              -2.453493051093932
H              4.886073191459618              2.575901663775368              1.1940408901646231
H              5.198310159467721              2.405874615117577              0.5232808108204207
H              4.13334724564687              4.989306046862479              2.8283602742264855
H              4.43723621085174              4.2922899824855945              2.851456371890264
H              3.4691853896183003              1.688666208501331              3.7213986513189634
H              3.015111057717264              2.195501886329021              3.3194534345729125
H              3.124952381736993              4.694341528843036              0.6905359357635253
H              2.59264700213196              4.407201610961054              0.23670491397875934
H              2.470252637209281              1.196443551702561              0.818037511429101
H              1.9077096844135597              1.5159172643406542              0.4508333673580204
H              -0.9861657954926139              -1.3114848524222926              -1.9915379413287997
H              -0.7996901754240153              -1.7552137484092565              -2.650363988445949
H              5.071862675465191              2.1500425521243827              1.4817804165014015
H              5.244003875187286              2.4118938288706535              0.6913280304582307
H              4.113730814781209              4.777201539927368              3.025396943807351
H              4.246801845904142              4.044716636790211              2.943895679173837
H              3.128500123949631              1.7592767750524865              3.782704008847077
H              3.111317088564475              1.8331416001930707              3.0868930817407616
H              3.256989689922417              4.390301374835277              0.4688053100604328
H              2.538187521216745              4.067600015026714              0.36057163287646793
H              2.3472834561616365              1.4028372546929617              0.819533575359579
H              2.0258509802359703              2.0546396349397726              0.72992512767805
H              -0.8502286597954024              -1.4213412480397938              -1.8157700053595327
H              -0.9343358012754869              -1.559850469986216              -2.4820448067379206
H              4.774252594141746              2.2859166178047126              1.3914133305365108
H              5.297621233080636              2.707037571355468              0.9558067838122261
H              4.563439617425698              4.706344238662917              2.819449954269113
H              4.702759498229149              3.9428111629681495              3.0669951996048037
H              3.0875719499352794              1.527183410828913              3.4790959981896963
H              3.2621472012753348              2.189740814006474              3.3035930240313087
H              3.217966777634771              4.605090949367843              0.6596324668199056
H              2.5603634313610053              4.278122479216968              0.4641802473392641
H              2.1000752228657067              1.4551195429808512              0.5454309271023463
H              1.9410973985220197              1.7779678113844581              1.1441711590503947
H              -1.1863890702725373              -1.3600765467128773              -1.5296212319192948
H              -1.3835940314056818              -1.4352894412801385              -2.2948804182987406
H              4.878214244511881              2.245906287954268              1.20528040567024
H              4.831758370575355              2.606421593034197              0.5447439643427474
H              4.641772732451182              4.595092850768263              2.717535978764745
H              4.601513444025344              4.079226400223714              3.2169409524242822
H              3.239191999033225              1.6770835346945006              3.750229744281267
H              2.938594127726405              2.049643416362549              3.2217197197982714
H              3.044815702527813              4.6922019482030715              0.7231832426762035
H              2.8305386765741694              4.22451293997039              0.1858012425066122
