72

H              1.2390133776647339              0.8445471526907276              -0.13295612053043776
H              0.6232521686997008              1.223114328108563              0.049797819648956895
H              -0.8687141241649057              -2.2842306521730524              -1.914112527901519
H              -1.3452694748362597              -2.758959826234222              -2.410092127115702
H              4.005857428093387              1.4557917075473952              1.5392497918374886
H              4.325137134377006              1.6408141815796917              0.9441426074008216
H              4.260839416811417              3.531028289883372              3.4417655749768317
H              4.232396791888627              3.784056858490598              2.7852920657762206
H              1.6520139624674572              2.460035929598396              2.575276704486488
H              0.8832438045608704              2.386092765015536              2.489689328857693
H              3.0950529423836244              3.6660901524775005              0.33500172905388426
H              2.373500459742804              3.5684314469004126              0.19110815719880073
H              1.1391067628586502              0.7368948024349202              0.04087316744793456
H              0.689315482473504              1.2578571108595016              -0.3477960022369406
H              -0.7712244726210116              -2.6994848328334493              -1.9144360078259601
H              -1.398744269743426              -2.640714136409087              -2.339683092184634
H              4.1810536875621835              1.506944256284205              1.7654848503559446
H              4.529118491441303              1.7546060530095318              1.1045753623834567
H              4.177680707390178              3.613381505714959              3.4186490570191936
H              4.300684409326244              3.65084797672076              2.7504174030006086
H              1.690165580567506              2.1837106416699177              2.3615834594495846
H              0.9946506543964476              2.3551817531317827              2.1657597357740266
H              3.2208355920834078              3.6807033656189283              0.08688563733383968
H              2.7125150609188013              3.5291382517658954              0.6222757843502493
H              0.729905772670911              0.9209481819047945              -0.5530448152146752
H              1.064860045235049              1.152314636360337              0.07494285271829253
H              -0.7960510555560755              -2.62238983769632              -2.0484410882188224
H              -1.3968839939461695              -2.8398152036240956              -2.319591246197718
H              3.7514815863759923              1.4688824639742584              1.5185806878636514
H              4.356302321693019              1.3518041568349375              1.1838827379372543
H              4.033737674001219              3.3412742065309726              3.478981032850111
H              4.045894246979969              3.73278587313316              2.8343691850572768
H              1.4481427209338016              2.047745586808595              2.465855656160061
H              0.9171843761504224              2.377264508479494              2.0429411317315775
H              2.951944268922787              3.495915188777164              -0.011586023812724631
H              2.5992709624551247              3.517893562743028              0.6275877702258043
H              0.8489638648121904              0.618148734112736              -0.1763967335791753
H              1.4626968476517614              0.9304683027682055              0.024574617589782112
H              -0.9717862325166956              -2.673526718976483              -1.9191976862091666
H              -1.5195741632253421              -3.087297537569077              -2.3467053576613233
H              3.69742096701772              1.4411877637022066              1.5570615002774575
H              4.410783087799973              1.2141083355187072              1.4462796906260862
H              3.9446126773255616              3.780820810356128              3.3186347599188357
H              4.40119912546392              3.657354302481378              2.78303498017451
H              1.1570897195441088              2.027829214706255              2.000810275051202
H              1.1925278848467726              2.2476560711556344              2.6838342198775256
H              2.9039132591157744              3.473403638463994              0.2775689897456757
H              2.266312641363738              3.7537248114602746              0.4463102144984739
H              0.9070427172877996              0.5886822967739163              -0.5072953924266584
H              0.9866310507017361              0.9680212485068443              0.16936329358187968
H              -1.390562091256466              -2.6713345035415275              -2.1750593870283415
H              -1.7400170166325              -3.1616082415064244              -2.4989560708487732
H              3.9817835149149956              1.229147564984653              1.572776497805926
H              4.598803516728504              1.5073966356054225              1.3835508669519498
H              3.757490284996124              3.7776937671203816              3.419142658861809
H              4.073092263385855              3.9842865535399534              2.8687427230794995
H              1.2803102428407724              1.9668728852404032              2.3468203578895643
H              1.0033534405672444              2.474545963442308              2.6244695709982655
H              2.7256218286511036              3.749828944109931              -0.07365941733260264
H              2.198780737161072              3.4620831188228967              0.32515457859267183
H              1.2673529794131717              0.5967247684136426              -0.3691996985794015
H              0.8151743372108806              0.9891082339221036              0.05671208219906644
H              -1.1349606301667399              -2.5134325895320835              -2.4493618985791326
H              -1.5933516527463722              -3.0351836937498167              -2.423284043446782
H              4.065693810486071              1.5348677924153251              1.544068476792363
H              4.607323073615217              1.390928277414767              0.9581708488973231
H              3.831686244139088              3.6470732251307876              3.3560310505753153
H              4.0541532941086675              4.057417087725983              2.782507239853412
H              1.8323214768474818              2.3250350082627866              2.176559396324468
H              1.1471223694394703              2.6251912434249784              2.404813289940212
H              2.740515687051795              4.134077564586409              0.13042676248970173
H              2.318591123607765              3.585135957549461              0.33350858605164296
