72

H              2.1170518883737706              1.529399555521483              0.9352018195712033
H              1.7680978539500336              2.0836271646509945              1.2427338071727638
H              -0.18263488795300856              -1.1430297383825117              -1.6713644364414637
H              -0.9879025909962138              -1.1360459902678317              -1.625109038606917
H              4.7634731927242315              2.0950563136813476              1.0890873468844426
H              5.060778620588138              2.7621032388749445              1.055029298215493
H              4.394237353260166              4.951466868583637              2.553957692776067
H              4.46593515969288              4.741795056006217              3.28831797366186
H              2.383195566515283              2.012720848529067              3.7487227348009444
H              2.809551765122619              2.4452928085912333              3.3196726316059766
H              3.0500950339495616              4.3729026835812475              0.42605782349295035
H              2.8301225059204596              3.725127816691399              0.6975913241111378
H              2.370008090134784              1.8694776017959467              1.1494513555658186
H              1.7685804716922418              1.7863318995250281              0.7392168081577181
H              -0.37957864058979807              -1.0259699958129813              -1.8289901255520835
H              -1.0117764978338537              -1.3971715644157956              -1.8436641365926223
H              4.707704689292022              2.117170249549598              1.3090017620650876
H              4.954670873956158              2.846075113326081              0.954427282945034
H              4.246312059154319              5.077407328570099              2.3945576367200463
H              4.0909304109870055              4.690279990050434              3.0668243577039402
H              2.507042675288971              2.2826315670896786              4.076709257802671
H              2.809793978328537              2.352929256401714              3.3207257181497543
H              2.849417342801768              4.222946226987719              0.17081147979170047
H              3.0203593384415286              3.783469638054034              0.712178007194609
H              2.5170648629206513              1.4870489995077065              1.0759420995045934
H              1.8916177464374788              1.6333893381712825              0.6503561750686436
H              -0.13683730160871432              -0.9094920444590265              -2.1597211401210235
H              -0.6981120697091491              -1.4221292806641004              -2.112789255431913
H              4.739568718449647              2.129529396087855              1.4078679450827092
H              5.13229603719076              2.780239367513241              1.323299264577776
H              3.9259304266906168              5.154860700421151              2.428456109655888
H              4.14851492088827              4.593322404438891              2.8344757169466708
H              2.4825108560727567              2.3255751390680826              3.65194557573381
H              3.1154967577057877              1.9228982068890241              3.230313120422566
H              2.675249890504885              4.219581036135481              0.30052090759203837
H              2.7467631520924156              3.5283620513967073              0.5413252540963702
H              2.3159819404194084              1.421512884029329              1.1001448765666764
H              2.016857127887683              2.09572107589957              0.9750915698871665
H              0.24757569334315185              -1.0617379619088643              -1.8748405313959258
H              -0.413772414059883              -1.4996587123994256              -2.1120323107432943
H              4.716780776435692              2.242373324550923              1.1257888390527095
H              5.1357849486413345              2.83800306549894              1.132550690885847
H              3.937462841316712              4.712867501963788              2.551537086795282
H              4.449218682017852              4.572644533701989              3.0632866899360183
H              2.6173959599981584              2.2802875277703425              3.4618409677265123
H              3.289876180998689              1.977944346064061              3.1165038424638434
H              2.8433408332181562              4.57885530372946              0.3815229292465694
H              2.609123725555452              3.83541254509095              0.32722650892630945
H              2.2467738482089867              1.515929109232525              0.9299938064944497
H              1.7832289562647679              2.1466331499470623              1.1311773460593035
H              -0.08560906647881636              -1.3062776404087668              -1.6993673724172738
H              -0.6071374959460599              -1.3446770308064022              -2.102676577077751
H              4.876708143591853              2.0230370612698674              1.1059103486382083
H              5.026578938639223              2.6662267008980027              1.3629429393765422
H              4.1719972126005045              4.747461824063978              2.5611690408563508
H              4.430145946130304              4.486127910483536              3.260564779099806
H              2.6817466652194204              2.2728379841883197              3.542832796449308
H              3.028942115885467              1.5349182779833794              3.481603539525657
H              2.7523956253686097              4.50979837014824              0.22727885986104296
H              2.973611246552062              3.812584138236874              0.24989214184650968
H              2.377635334649127              1.5850998616749448              1.145112633269807
H              1.865603730814522              2.0823360765753978              1.0151582696349633
H              -0.10277035640603352              -1.352112332381826              -1.8281934339739927
H              -0.8629460167165889              -1.2376983917858189              -1.8711796836265608
H              4.889440611915525              2.036869094463027              1.0816149114333014
H              5.072894313910014              2.7144981722231116              1.5148385892352052
H              4.609197944851266              4.8151940400802555              2.5849370520449866
H              4.418369702513772              4.603340737374152              3.243304845020936
H              2.35862724604946              1.865042396495996              3.8092161020038615
H              2.9709384611320986              1.8093768896946076              3.3399714276916708
H              2.994173766332626              4.47489921569485              0.2731706522754637
H              2.899840254099958              3.818220757410435              0.46598768707160776
