72

H              1.280816008515678              0.8683856357841819              -0.2290282407935061
H              0.685478225165394              1.2092413451954611              0.09956554224905922
H              -1.0339615418208534              -2.3084954911640647              -1.9309467894782055
H              -1.4236428773904442              -2.6760957591226955              -2.3243100010880533
H              3.950384859433404              1.500726797345179              1.5464229495502602
H              4.299895499871112              1.6055259391662255              0.8702911879339452
H              4.251004975811865              3.5928878829283444              3.4679076613314517
H              4.326539654650326              3.85120991396899              2.7557513277870163
H              1.6422482464051629              2.395421370880377              2.6788962844327058
H              0.9748399542122624              2.391355575190189              2.3840729457967345
H              3.0687932162434777              3.6862300033976965              0.31295660920011764
H              2.364467252620095              3.5702739209527583              0.10872612175879962
H              1.1390138881926613              0.6676605602798514              0.034181423410954107
H              0.7499221180662795              1.1884359061912773              -0.2988517850017458
H              -0.8015146992284389              -2.6556469994964074              -1.9507691880621236
H              -1.4905871927274699              -2.6492553354546367              -2.3358036401453925
H              4.196834387605593              1.5089204804207046              1.681589025930509
H              4.604586325932613              1.7583466638878928              1.1601041951582605
H              4.074911551780458              3.4973213317450123              3.4713237851076055
H              4.243834963555122              3.735580464948014              2.739324725339037
H              1.6106028567817867              2.152199960195521              2.3065622609486374
H              0.8524649708190858              2.350224700047571              2.2111160488363533
H              3.1664465311078054              3.697372544547715              0.003014799550507458
H              2.737217268197595              3.5579675198869145              0.5506138236435348
H              0.753573767052273              0.9571919430288637              -0.5382060466527383
H              1.1084445573589135              1.0385374204891162              0.06317503884347624
H              -0.7380223634849762              -2.5683869881420613              -2.065943181389945
H              -1.3709802584173951              -2.8950635708270633              -2.3877250873356193
H              3.7712375466398793              1.4634634709128882              1.6256348652960801
H              4.39767380302021              1.337879166006088              1.202504095177762
H              3.976107203156132              3.3212903497770108              3.3765128775247906
H              3.997150257212823              3.8087518702235386              2.8679117572889616
H              1.4914387609917186              2.1136813350403796              2.4655844955510107
H              0.9779861189451033              2.373771607614558              2.054845042852002
H              2.938683204958246              3.324063427197585              -0.031041182064184818
H              2.5481278223839663              3.502972534731341              0.5844045032742994
H              0.7176833512618848              0.5854789508726661              -0.15922477349071681
H              1.372612108690206              0.9392013984761236              -0.07203651152481075
H              -0.9837850334576993              -2.723820810497906              -2.0198598135226873
H              -1.50842628452371              -2.983044770045807              -2.335266085512531
H              3.6590105576363134              1.4767438811108091              1.573453225441429
H              4.286551547963585              1.2920210635490392              1.313260538849997
H              3.9087946090664167              3.9115325990349468              3.258996239010971
H              4.375132383958692              3.6421929137492763              2.759743568331728
H              1.3880984462052057              2.106547179072012              1.9776864562255632
H              1.2351484297494584              2.2189376069931073              2.6729635706595145
H              2.9571774285182877              3.4475671201935776              0.21706604881508113
H              2.278512273220066              3.7297987878180847              0.5026076698808826
H              0.8776108107436              0.5705994117331612              -0.4348568436448106
H              0.8882629653213849              1.0579131615019888              0.16155009283836705
H              -1.314369234313076              -2.676309026962814              -2.168032663804841
H              -1.7878435547159208              -3.1978385568927767              -2.5110484811178324
H              3.923677601648399              1.2096767880824053              1.52388205446947
H              4.641526042643867              1.3999264854792006              1.407908772398662
H              3.728760118909543              3.71145346267067              3.5044850243712538
H              4.162833282864308              3.9923501777913506              2.8773256244514585
H              1.3108380620847584              1.882211039858094              2.301953256282014
H              0.905574186005078              2.535351015642711              2.6324337781960074
H              2.731772226026302              3.814931697278138              -0.04060682869769147
H              2.187309883020837              3.525324084159818              0.38184650238875806
H              1.3358461569226445              0.6355308166890047              -0.41114427309446466
H              0.9441960089683558              0.9009521723571797              0.13953737935376193
H              -1.0509529480004054              -2.506544409547964              -2.3098061582739895
H              -1.5970985415825283              -3.0339295096753403              -2.3341396734914945
H              4.153233334898497              1.342313159945231              1.5436513333997417
H              4.619242438103049              1.4080438461773699              1.0480801544986964
H              3.9239447934174976              3.644322175935603              3.3794677741837496
H              4.088750834585509              4.041149601933973              2.788359991531086
H              1.7173582347568273              2.321771985741391              2.279644409340822
H              1.1114658132417803              2.621542921540394              2.342194034135307
H              2.649384258865476              4.225390627449964              0.22297332826801106
H              2.2509296184674605              3.5557625068240775              0.3040276927413411
