72

H              2.1822291147358963              1.9822206292124327              0.48583449766037673
H              1.7037499043875453              1.8647185649173974              1.0017427663698233
H              0.09895931431235105              -0.12072875127814948              -1.9047726523922275
H              0.2848985387499818              0.3340889267357571              -2.349352387648862
H              5.53346002155766              2.3884325066112604              1.090964041718209
H              4.923101558541884              2.4619397709075295              0.7172270825513887
H              4.255591008687731              4.6546451592194105              2.938637119213262
H              4.095490297469002              4.021243715256568              2.7031718332039314
H              3.578426161056936              1.349886527209319              3.176875130369871
H              3.410036133289315              2.047617855528262              3.0788457979695116
H              3.005945243628511              4.1399894598281115              0.5120086607924589
H              2.6953612327045966              4.754537650962065              0.7351639290756246
H              2.288166131853677              1.6100185434386496              0.6857446109710834
H              1.6540708534048165              1.9188262650538026              0.7668655311714132
H              0.1976976639597064              -0.23973589367137987              -1.7891029545254082
H              0.4911997847793968              0.44077440638490356              -2.175111555581135
H              5.048758357032849              2.279695824435173              1.3326937240694139
H              4.744532551633236              2.518225471682586              0.6086339341583143
H              4.378629006114462              4.30162760777447              3.0149655763238443
H              3.8554101396725953              3.888960479236734              3.203818507546097
H              3.4447240717344516              1.3441398960492288              3.2218216033841265
H              3.401734818424192              2.0437615869983046              3.243020453033289
H              3.099277087703234              4.168029553968874              0.1429119407947016
H              2.829657705179342              4.350199586132573              0.8234491383537486
H              2.1760049461521507              1.5200702769083134              0.8902723855298964
H              1.6260538558612654              2.000015434609213              1.0766004264723754
H              0.27232044051846277              -0.357955083452433              -1.6124305561471308
H              0.4011624417374302              0.23003700492254975              -2.0581545079373096
H              5.33558012512823              2.435258077479629              1.526400930522807
H              4.977516036202387              2.2951288681654605              0.958245167799031
H              4.528294893237434              4.527888793027859              3.082693346388671
H              4.0644674926156465              3.9276514385672883              2.9898579647247256
H              3.250568208891124              1.448058532521851              3.3142550953536976
H              3.325102745803494              2.157709434798148              2.9659457689656037
H              3.3283493222474223              4.31204423399381              0.23259679541029007
H              2.9787762602201755              4.592708699241943              0.8576965133018319
H              2.304590913101111              1.6876712075322147              0.5679786405949474
H              1.7280256488061831              1.8882289024681922              1.1045658757858714
H              -0.10104924348614093              -0.42908348208078595              -1.822713060389361
H              0.005180190580345168              0.19947698370517308              -1.9989902548150478
H              5.463495109078775              2.492276852757746              1.1256344767950262
H              4.917546383250098              2.1896100532181406              0.7549353548250776
H              3.937886128060311              4.744566868576747              3.006332986361811
H              4.267717136628233              4.096037398459437              3.111914851100857
H              2.935552461868636              2.127861508399879              3.1319336052687285
H              3.541470995116441              2.111896754772985              2.84290943669563
H              3.2543892375183643              4.263980502929657              0.10127524913806149
H              2.8884220852858506              4.524924236174719              0.7068586298770756
H              2.3850215383550384              1.6738186394412795              0.6566293756657919
H              1.795063093078866              2.06010661877364              0.5275463669379304
H              -0.20203015174020036              -0.580237709592258              -2.0525610669125878
H              -0.0816893276956448              0.10002230201593372              -2.3341635257696938
H              5.32437150111183              2.3790057906706092              1.3477521287545287
H              5.0410909862724465              2.162215767346606              0.7118410587249111
H              3.8894136005544144              4.863046969714779              3.040005339282062
H              4.148990911410407              4.144436866045094              3.005857478163569
H              2.94851912512992              1.5269410408066093              3.336980922034155
H              3.391724890268298              2.08591487581448              3.0167580742364897
H              3.0738320230903695              4.2714218348079225              0.3652232613523034
H              2.5655412679305063              4.831129836916412              0.5464514464589384
H              2.4678417950302904              1.6578153617477012              0.4236227573363694
H              1.917071880222331              1.6326624452205045              0.9684991658744724
H              0.20412967990829398              -0.35444086070049113              -1.9125716757104616
H              0.0953961178919729              0.22106798427911475              -2.400908622816727
H              5.432916489824321              2.278521962026862              1.230485055073309
H              4.691719477392218              2.406588847148124              1.0623089998193984
H              4.23843022414225              4.618376702880118              3.1451142781972576
H              3.9801578928361514              4.2232862347845535              2.636249460196244
H              3.2811460182715484              1.4733488687816279              3.3935874318755324
H              3.1467082516929947              2.091474079558034              2.925723152348493
H              2.9415025545000315              4.22042297824752              0.5008521665047054
H              2.526117652221001              4.81319834860287              0.5165813108926451
