72

H              2.145444551830946              1.9204968610762312              0.3631886723223397
H              1.9044813272459749              2.018956323355161              1.0583797518041433
H              0.08636533196684867              -0.2948575636836191              -1.8142383537404658
H              0.15554901123048376              0.28570989046672085              -2.342711088695548
H              5.405665927250049              2.482629117054164              1.3032651144106027
H              4.7319739293814225              2.165292477253301              1.0201130475057174
H              4.083629743057696              4.488411246102603              3.0569977563965387
H              4.057736715748062              3.9384362946645086              2.6847976845708215
H              3.4321291938083145              1.2805330521329898              3.2353469907601133
H              3.4005166951492236              1.9829975276246223              3.1446761544877866
H              3.026653308070926              4.100217721235196              0.5951154694367646
H              2.718425445306539              4.687025085483754              0.41252469577202
H              2.149379003013253              1.7012009710664648              0.725130852023931
H              1.4732881887355824              1.772258496629194              0.7483194161199102
H              0.4311447681458251              -0.2455841982217718              -1.7825466254835896
H              0.40106271476688576              0.5435065912293267              -2.134112896316115
H              5.277045056817515              2.3706624562902334              1.3973335821537376
H              4.756642822073667              2.3036974554092526              0.7216900656669155
H              4.368302524091174              4.565397998086369              3.0021431223985418
H              3.9014437473362213              4.03490616931395              2.9219806883919497
H              3.4348507936069534              1.170707232064721              3.2160027583576745
H              3.447129877035049              1.8327728964898824              3.2874863794468796
H              3.0018469031617934              4.176727244575521              0.3105964139818923
H              2.9118656777049376              4.578300320358147              0.9296739747444221
H              2.133229562324791              1.6027137813919674              0.8116689581612009
H              1.4419263961750812              2.0109807601512415              0.9137835354894793
H              0.40675793027010976              -0.4342037935494748              -1.7650237617879374
H              0.4699822687673787              0.29222608169466713              -1.9423059685548199
H              5.491285673328512              2.4118883130868505              1.3706467860812952
H              4.935417619082228              2.3336433629492954              0.8830503653997382
H              4.366247291515937              4.756999455111511              3.0392316180342003
H              4.0461575828831675              4.089883961892294              2.9249208842582184
H              3.5059210652292414              1.466233120720126              3.1742004344295345
H              3.2678089015877942              2.1838244774594977              3.0873888465795067
H              3.3137242482118032              4.289043224338074              0.30973442495287706
H              3.059523328425947              4.754337852990146              0.8135822598366035
H              2.403155263205682              1.4165074861318734              0.651526366891884
H              1.69963300906144              1.6849405653220813              0.8951496637203346
H              -0.0010299925060848099              -0.5728823744992309              -2.0945666262792626
H              0.19022464884992338              0.07231443987959564              -2.175651931887632
H              5.505763509779591              2.550913865022857              1.481653679762082
H              4.928024785171686              2.2640496674797745              1.1102930687415753
H              4.017833190218043              4.854974975011743              2.9463576021712017
H              4.166662752392556              4.186652338802597              3.212065684922178
H              2.9047330821850252              2.0184740257651885              2.9710830337694287
H              3.5375539357677646              2.052372667926623              2.852395027928611
H              3.4380110050535304              4.187914022001331              0.2747482320198381
H              2.8501612995227403              4.525063887939893              0.49242088976178383
H              2.550077373780447              1.5620544298222827              0.6747266697320696
H              1.8782952323417013              1.9130063388547291              0.8524019949692964
H              0.10751044557882203              -0.6117365029780452              -1.9441399685584957
H              0.10146572425359433              0.09411504055767614              -2.315035303594381
H              5.544614448192736              2.534289022484905              1.2386825707468112
H              5.180417384777446              2.174198213181003              0.642882596885692
H              4.071543748406602              4.7417734451005895              3.0518497012770154
H              4.288209209978572              4.096424516668331              2.7579462243196713
H              3.0086210760934082              1.690288891794323              3.5201272247900715
H              3.2129443406902816              1.932709722781835              2.7932677004561106
H              3.1197491486442446              4.206537467613393              0.4385880247729816
H              2.651427744467801              4.624066152501375              0.7905365856419285
H              2.351746997125235              1.5357326715247188              0.7643785837682429
H              1.7568246540899735              1.9108499909161245              0.941408927385189
H              -0.007419821225745081              -0.26693199246697713              -1.6213485185458347
H              0.15568250993639388              0.0991269181993242              -2.2800904215907956
H              5.465659765290693              2.112471242686345              1.2509504552126611
H              5.0283258312892425              2.436908517823282              0.6838287399708003
H              4.226288530839267              4.461693926186838              3.2155806905103668
H              4.019984966927775              4.013446129702336              2.73028477612246
H              3.368653867864259              1.552575542450114              3.3156862098519606
H              3.268816449931579              2.2433930503850634              3.0619870868745993
H              2.834299700226781              4.2022748231883895              0.4088752048126527
H              2.528478255645498              4.80018755942571              0.6796589107745973
