72

H              1.481546980134084              1.6889237665509858              -0.06920754680066037
H              1.3625825821585562              1.1940133309415852              0.3829015745764985
H              -1.2177387874156824              -0.2608184975085425              -2.2269083691305993
H              -0.5766530511703807              -0.33428928156459903              -2.4709587723040323
H              4.154384110054865              1.8772262993576558              0.748809479449513
H              4.574592297982232              2.479001289659381              0.8082977733235563
H              3.7848606603799615              3.9466705538820057              2.754642797628326
H              4.000013940176759              4.6375133129487525              2.8867471065010273
H              1.7550200263923015              1.8727252651434858              2.3883461439528713
H              2.5082204923764495              1.912763307572535              2.666437250291092
H              2.0412813722220213              4.070291691481788              0.281354847606677
H              1.9493745905141573              4.127979493003732              0.9904203300116877
H              1.5467948436419157              1.2175481473058585              -0.00917788454888239
H              1.618760677414604              1.2210748695662703              0.6909639518382835
H              -1.1972159542565934              -0.06387596508093359              -2.037733835562994
H              -0.46278160876522006              -0.291499307145711              -2.0956034366802636
H              4.559284045338813              1.7488668958007367              0.3705926732031878
H              4.495146160480095              2.452958971324643              0.6417038072074726
H              4.00592401267801              3.8556053128681955              2.921381594075185
H              3.9385046080500365              4.5735078230517985              2.8126337798142726
H              2.145784070572752              1.951012590720911              2.410409872235168
H              2.238670876581066              1.8739229938002748              3.1352558976158433
H              2.110912972800765              3.737745224704044              0.28133013853759387
H              1.9432226089145697              4.102202064099009              0.9016780256440002
H              1.4615315641591766              1.7505622497829345              0.24074567865795088
H              1.4196066684235897              1.076668347150175              0.44618643057137886
H              -1.4351063578531809              -0.24592155922852782              -2.299508699490225
H              -0.8041825012751214              -0.4573648434733919              -1.7819451269875801
H              4.364720392776416              1.621474134572409              0.42883645688304767
H              4.8454158943094745              2.2430237277402894              0.3452857230500796
H              3.599388289603302              3.9421200452569605              3.1516887676285763
H              4.109268976191403              4.401135307111033              2.744218867535259
H              2.361530347167377              1.8517161756935092              2.560882713672796
H              1.9284257399563207              1.8977214026393359              3.2209444678470076
H              2.3377208700993104              4.10897105379768              0.3283989744977155
H              1.6627433196613262              4.236627438171907              0.7080212246518092
H              1.795451318474735              1.552284076129955              0.08521398559750751
H              1.1290168488313057              1.1717995036334432              0.38501162799434807
H              -1.5360678530186644              -0.4370380839446806              -2.3246234259991674
H              -0.9061981907640361              -0.45282117973965824              -1.9104954253949593
H              3.939292212088397              1.7204089774014448              0.8376992723058408
H              4.5056198721026375              2.0984559837916326              0.8924203876553541
H              3.4007685653742596              3.9398025213109134              3.08601277571224
H              3.892499223912108              4.453460210783632              2.7682796081054786
H              1.8134063279391048              1.8883498653757151              2.7125014979365725
H              2.1838928991517332              1.7848779143829463              3.2750552863720226
H              2.154197262350866              4.070632234250364              0.36026835549473973
H              1.7003188814671928              3.8772485054935752              0.8830814736558322
H              1.4598775682259617              1.6709929002376738              -0.10093898085692414
H              1.2625724372104403              1.2684926674647818              0.40553551915021135
H              -1.637450158865065              -0.48583960241316004              -2.3416970832198434
H              -0.9385795356097069              -0.3334546160868881              -2.232539037266778
H              4.4425020501798445              1.7244992508097143              1.015835782124995
H              4.4353735049138026              2.3546128170021547              0.5940086070965938
H              3.2965012643418112              4.5235645835184455              2.6326742574044992
H              4.078226810144826              4.553345653578407              2.425631277472671
H              1.8751015589538795              1.5558007034876584              2.7274487269373453
H              2.244809209371167              1.947933807063829              3.173696737731837
H              2.209046451178472              3.9182835132135647              0.5898777831849905
H              1.7570391762124662              4.419647542367059              0.9152753836553185
H              1.616080420609855              1.70436369540646              0.02711362692531447
H              1.1045199600761206              1.1971516872513588              0.03934499131618137
H              -1.6821081730216372              -0.1807455420724003              -2.490078923584362
H              -0.9321632490934177              -0.35575028698660616              -2.4215992740837935
H              3.990479626335021              1.7869232647159363              0.6172011192940676
H              4.30055096125413              2.4959510228077764              0.688730445776818
H              3.378797471961281              4.302238530885534              2.992133663670494
H              3.853577477688302              4.643039131555848              2.5133969288434934
H              2.0603068547508596              2.0699011509713574              2.251146299379124
H              2.3718601347492685              1.8935794920516078              2.8866479933274074
H              2.208981115653244              3.931903046683258              0.40582678279389645
H              1.6920169634140905              4.26374576897739              0.8180030902165055
