72

H              2.1942215588558196              1.0742518274972732              0.7871687439556393
H              1.8906034291440805              1.6544887051752701              1.1062514186737031
H              -0.5914512630217345              -1.0003291269183128              -1.7919952038689813
H              -0.8225672329769519              -1.3519233609477885              -2.3084214489003476
H              4.583809586676608              2.419249092842258              1.1928715818821765
H              5.130524134586765              2.6977154162195016              0.7251786182453545
H              4.204580850144858              4.851812799767228              2.655645248433015
H              4.627436865715088              4.44566639448486              3.1746866228428563
H              3.0430098172880347              1.8757989398482338              3.6735109559562873
H              3.366340187771788              2.0602489149010283              3.025727261776079
H              2.9783212985351506              4.493898267169503              0.6953238122306338
H              2.5749070192600465              4.016768713567905              0.3076687220961706
H              2.196914095954188              1.4755828051700322              0.8236787393078668
H              1.7871494413376177              2.03239630904806              0.9449815261803597
H              -0.5687912580163519              -1.3453387029999144              -1.6371935386762486
H              -0.9779978671351237              -1.2648958440940499              -2.3617382366139816
H              4.55701395879932              2.1331310196836224              1.3223500153951742
H              5.098411382829759              2.476612978360665              0.859195824888339
H              4.220017996115389              4.8224411193778725              2.744489929230497
H              4.432176829979706              4.22792648118694              3.073081552795432
H              3.343599280031869              1.6854502767648096              3.7433900761398977
H              3.1055450710625077              1.6212971680058161              3.0292471039173208
H              3.161129996138863              4.7466669826483034              0.5810313844208124
H              3.062445235524315              4.054349038334145              0.28030737790473964
H              2.1058420953942445              1.3805118440964095              0.6059846624224874
H              1.96616601508141              2.088319501515488              0.7739783176606904
H              -0.49326996652672084              -1.2470618419563413              -1.627476596854536
H              -1.0438378564732411              -1.4244781989182955              -2.2033068083066727
H              4.9458690679162745              2.0760049408486796              1.801878909185457
H              5.107008891499371              2.613216993313185              1.208884089358329
H              4.559479441656708              4.760046647505965              2.686118670139675
H              4.490661890257209              4.028588165083623              2.9534124339037247
H              2.9247011038707385              1.9187851908872464              3.7649384970835196
H              3.0809981357870484              1.871763034502118              3.08779231909595
H              3.328435640163875              4.5398635446726825              0.4961821434826712
H              2.878863091982497              3.9687799402176505              0.3159340977773008
H              2.097893072673074              1.29235214232119              0.7864535656291688
H              1.9621519796414337              2.014327011628026              0.8385971492204067
H              -0.7654588466012343              -1.2477700397416753              -1.5576256791459515
H              -1.2453118853488825              -1.5612935827054575              -2.046602537465434
H              4.934953693557947              2.4576904694011046              1.5544417133348423
H              5.071909429719794              2.875626895831859              0.9645800733738875
H              4.732825821703234              4.774234829751457              2.560886265023648
H              4.570678444971424              4.171067695781338              2.9268016846342944
H              2.9787436696168967              1.8476381867276088              3.601375146635852
H              2.827692123887425              2.457637033908017              3.3988087363025405
H              3.23908170107931              4.827516653755856              0.3960418748475835
H              2.6899866404031822              4.2778917030448484              0.3807859459741706
H              2.362362977728374              1.101048703523771              0.7494942636181285
H              1.7279887592516014              1.3896203379754317              0.7868107443916345
H              -1.1451701461000567              -1.1518561175511355              -1.8005351802981229
H              -1.2813582880928194              -1.781377172846881              -2.3052124607260565
H              5.254263016611583              2.312166811859198              1.4334671916414015
H              5.12314225501041              2.739770885245339              0.7985450015400348
H              4.416888305889648              4.909053858388296              2.7377558267379074
H              4.158650961909966              4.256102057599497              2.8698040578455566
H              2.7340301725411873              1.9166577817632267              3.9979713527311036
H              2.64218193875544              2.2188295865863217              3.3332864892316243
H              2.942337409140088              4.583302615498887              0.11995813718499458
H              2.6472576993619885              3.9476097698216326              0.3548240160110367
H              2.5002036366462743              1.2813880773164106              1.0376831649463778
H              1.8781829920797364              1.310663356983598              0.592596890770458
H              -0.8128472056126603              -1.0748929925060222              -2.0840455398200817
H              -0.9688868507422405              -1.6921954925193887              -2.466791657178563
H              5.043457905898379              2.3292710043904687              1.4719688799865533
H              5.483304556758621              2.8710148385321896              1.0318988297432514
H              4.386130121109796              5.035370068988493              2.716571490600315
H              4.331287913273125              4.237105635643638              2.882403241909223
H              2.6405792736239317              1.6996358290470002              3.7011701440374676
H              2.9909061967869253              2.2639457618600254              3.5680995528195827
H              2.957678222477687              4.508315202833539              0.3510498046141963
H              2.4770623091393773              3.8705823357387357              0.4195508098230759
