72

H              2.2777872075606633              1.8891482760707676              0.5828411363269983
H              1.5783707705702803              1.7351051414314926              0.9421532718872496
H              0.1151189977445317              -0.15605024914260684              -1.8615762347246134
H              0.4058050295517606              0.4086572405625502              -2.3983889658988575
H              5.527791500690222              2.2859911061331006              1.0556349169702313
H              4.971023892397334              2.624756838778505              0.5674519765039548
H              4.419021815363702              4.733645088490778              2.924072775230938
H              4.04516723481614              4.064039390253246              2.792583971763269
H              3.5775144592438624              1.373672214278057              3.200978019876223
H              3.36462934112548              2.093043597084874              3.0504386423107337
H              2.9771854912683975              4.255204761933221              0.3814222559774553
H              2.6905220442744917              4.718532995106553              0.9298052738806458
H              2.35572487317469              1.584470991924948              0.6069160994618454
H              1.7764849948348973              1.986776547833457              0.947229068065093
H              0.09296882528726604              -0.20563362977148933              -1.8013580233131408
H              0.42911427624213616              0.2688703290333036              -2.170105918590815
H              5.079971748464458              2.2904205065067993              1.236588598957295
H              4.784255303303943              2.558680958637862              0.671288318299497
H              4.429300317848925              4.269705055761856              2.9923914604214223
H              3.856374037640348              3.8567455027174233              3.2925150124801514
H              3.4431096788232893              1.4777540292600841              3.2076157058930366
H              3.322890911571832              2.22059442899742              3.1278446632069166
H              3.180664687201539              4.192080433172889              0.12764438535154637
H              2.7715669453848224              4.338469758187163              0.6998217120644566
H              2.257768178225914              1.5300728207872882              0.8383605492992001
H              1.7422863636309105              2.00316369688425              1.089448770077079
H              0.09028374313955438              -0.30246274280739655              -1.5960127853499315
H              0.29702172680605965              0.20575705548368764              -2.176080671204812
H              5.2616595553026295              2.4602971952755284              1.5630855058099
H              4.959593916712741              2.2514453484970467              0.8311770732439184
H              4.46123450003445              4.438181666801861              3.0712641403235934
H              4.083294434397166              3.8465961649108227              3.088133611904483
H              3.060779410690966              1.5220755505474028              3.335216856317671
H              3.420109605133937              2.0597047881354476              2.9622966647665416
H              3.2621825232058175              4.283241839403826              0.216751395052793
H              2.8799338884430576              4.457692348441862              0.7921093484329165
H              2.2229071475589546              1.8171444774606194              0.6205420444536712
H              1.7702818289786584              2.0258683923000467              1.0658602054230462
H              -0.09715528356577512              -0.4268601114998693              -1.6273200433056152
H              -0.019997344742037314              0.35472312991000815              -1.984261516411587
H              5.39937673364641              2.4255540210022186              1.0398236462513113
H              4.867673930736031              2.1553678673186596              0.5340911757841593
H              3.9646160765477028              4.658191244329368              3.0579104182429777
H              4.296196926902204              4.007585718035813              3.0225584378057304
H              2.9385710300602548              1.9517013464282815              3.3938273702490003
H              3.5468967218789285              2.1288366852250573              2.8499016278439013
H              3.040638945925161              4.33820246543517              0.0966152967591337
H              2.9245018993816885              4.5388278494174825              0.8055788287775992
H              2.3164611097463226              1.7054619161234017              0.6282531310652059
H              1.681415170449881              2.101130080973203              0.5060261383609916
H              -0.3032592910064991              -0.5081523411672627              -2.0525387219216977
H              -0.1344443254252198              0.1533717499058967              -2.2937684175151873
H              5.2672117247459305              2.319298121600106              1.4313230401165302
H              4.862177671869522              2.1865143200561072              0.7962478454199221
H              3.87500369823282              4.85915469396451              3.037499343974477
H              4.067175732503826              4.185812821862264              3.0860150409930402
H              3.028350876898041              1.5493015693622736              3.1898030108867554
H              3.4528433517690864              2.1496295097707727              3.1097806971735817
H              3.0396538645052877              4.3227126258992215              0.3294422479420748
H              2.6117108240552067              4.8917219539757255              0.4203724251945021
H              2.4166585400268836              1.8036849045311456              0.3046893949746582
H              2.024218198971042              1.5588141641768893              0.858345355756987
H              0.2275276379123802              -0.3887436600956282              -2.130104212974835
H              0.07590216108096327              0.28259548417471353              -2.4312994559783045
H              5.3583084062438955              2.4028288046324664              1.2157573096339138
H              4.596533641161398              2.380451158076523              1.1349305326868175
H              4.180860666588664              4.791063503068224              3.1146510505399556
H              3.9710876056497586              4.2392883880505625              2.600767207808731
H              3.215176725181735              1.4505594477595962              3.372090856601914
H              3.159147328512633              1.9773944360579119              2.902920309205925
H              3.061509892627682              4.211179201824074              0.4997551531876801
H              2.5592619887854258              4.759504882812995              0.473448344093424
