72

H              2.2606839540491293              1.286567325355096              0.9812766304624244
H              2.02963825420757              1.9316130085002272              0.9969840481829806
H              0.7086609539021377              -1.061490836657467              -1.7266849853950264
H              0.21602134776903972              -0.44812893294007433              -1.7733503831950086
H              4.653935542836874              2.3188187906677515              1.1636958995540412
H              5.051010783551679              1.8624738018694014              1.5341557391874325
H              3.760860122008731              4.701931331929136              3.169750530876944
H              4.5113419318961485              4.713840884084326              3.1005049712662602
H              3.0588793078603436              1.5815138717425654              3.172319501446932
H              2.896142889173917              1.8546172272338557              3.8525508965586965
H              2.949635029516452              4.087010549803549              0.7399477139654106
H              2.982376098572992              4.310124736076164              0.01591965822390105
H              2.7410084518630047              1.541451067771217              1.0428754818162849
H              1.9531269332838794              1.4471496503927062              0.8995553976575923
H              0.9125890359569321              -0.7050623842888183              -1.8487174669419504
H              0.23404285048680143              -0.5682148319278166              -1.6988872034957032
H              4.924210760163001              2.3978166175655344              0.8656444654709686
H              4.916288601648763              1.9357101845335751              1.5226749678210425
H              3.8133176637259547              4.676261558531735              3.042749096060207
H              4.447340847045244              4.966715293844312              2.92293918931269
H              3.1811292507124955              2.0622952362795623              2.877914558718503
H              2.919940582073203              2.1381463507460516              3.58738193463061
H              2.5896794998200416              4.016248938856685              0.593199180841547
H              2.9002478526802054              4.463022062353228              0.13101066244274717
H              2.401210165634809              1.8510956914767038              1.0507250758313171
H              2.0224052165806286              1.7291980372388924              0.48201750543579275
H              0.7893164760525304              -0.9291482581029595              -2.084593935225693
H              0.41532736445997237              -0.30603142369857234              -1.8073448514238701
H              4.881756889350583              2.595409780413866              0.9641695871316025
H              4.950856171362466              1.8256045778649233              1.0713002116420063
H              3.5973253973461383              4.851412209954432              2.927896316868016
H              4.337603154065773              4.791371695485284              2.8677332561983064
H              3.3411199990205924              1.7561800092063433              3.020672561810195
H              3.1596513426320114              2.003311553643213              3.7326342265707844
H              2.5752127384984393              3.9091341918069187              0.6329459057127454
H              2.678100501451952              4.517003896373891              0.21332256955578396
H              2.6422659437439724              1.512977333227055              0.6054289287995456
H              1.9667868700556714              1.7337953823950192              0.6998673598358909
H              1.0417000794175115              -1.00639424637969              -2.2109428993469677
H              0.814919115907414              -0.3261450030982942              -1.8751651280907415
H              4.765491777880522              2.5545526401159435              1.0924255137552616
H              4.662798048110771              1.9237633719023017              1.5837465662154677
H              3.7195965937399382              4.7727082541381485              2.9482637674310173
H              4.340260093611689              4.411363004421019              2.9901622836066566
H              3.232827295984904              1.2491507284424548              3.6325549967178783
H              3.0579131546767417              1.9945857005779228              3.540296133748487
H              2.9441105489499075              3.7874896979388604              0.525822571303173
H              2.5497940427931844              4.2311711128780205              0.005718154801229111
H              2.309186351525774              1.7760679481176678              1.16955689923174
H              1.7656587550447653              1.54765989680829              0.7713675853535635
H              1.0070375223664452              -0.937745357300509              -1.7125140989427858
H              0.9291024809265209              -0.21557341804107077              -1.8338459921620889
H              5.037571873940717              2.6924599452464495              1.2723539591833164
H              4.828274253417739              1.9767367183001459              1.3185688819593295
H              4.096862774672404              4.593492143042233              3.1605597596513966
H              4.727158833655907              4.51399672097156              2.7815447117138863
H              3.331616111097928              1.2749692885484571              3.466213226657138
H              3.1233890948436263              2.0039222271837023              3.716608888271461
H              2.978046661199824              3.7818021864451525              0.6646252757652359
H              2.781810863702608              4.4839601581031605              0.36781216201015965
H              2.2272689606576876              1.359284208464343              1.1728559156699316
H              1.7925604114262967              1.8694310021986864              0.8726393066383594
H              0.734691183261999              -0.9795293094381298              -1.5045928852405432
H              0.5351783118411413              -0.261014806756678              -1.5840850856801236
H              4.66433335399508              2.558355978353042              0.9146924805483826
H              4.729526850679035              1.8595835645159384              1.0487629540197903
H              3.964236762073365              4.382443205233044              3.391495977371606
H              4.5404701748491885              4.577295163408684              3.0189321730819474
H              3.6072697652352272              1.7540310784330233              3.6313201748896855
H              2.7667672190462853              1.8630912832751987              3.5352893216989187
H              2.98605316792696              3.8516334777527543              0.6754821229451958
H              2.9394016691420513              4.373263803057894              0.10248580160853912
