72

H              1.0666519473417382              0.6785683547191398              -0.4309337550966264
H              0.8612125253957316              1.0224658409143235              0.13667829040189594
H              -1.7128178310359405              -1.4127468906471574              -2.595002407675886
H              -1.432620144641109              -1.5523353535323856              -1.8923360452216433
H              4.154607679637203              1.42068742383064              0.8876374598845417
H              4.577880517717555              2.037261575280078              0.859948215175922
H              3.887804652459095              4.702746444759942              2.7852527746036118
H              3.6465184489905766              4.017898314035328              2.7410307372579528
H              1.0120387082511282              2.3970814949136816              2.761300219860986
H              1.5329463639796976              1.8766554916498086              2.8894700973214418
H              2.215647834540607              4.001705430715238              0.4933221369617976
H              1.4598396783782097              4.10818256975872              0.5949719408820221
H              0.9759330661409148              0.9585359649745586              -0.4068339592551946
H              1.0798952574042833              0.8045857667033399              0.31796611220172416
H              -1.7353438369581065              -1.146841360233263              -2.442838393999894
H              -1.5400123625057809              -1.5985817774256823              -1.947832214525461
H              3.45256538404616              1.5399194708849526              1.0033764639369092
H              4.016917362579295              2.0763118858679603              0.9887979392849212
H              4.083739685579128              4.601166145076203              2.9213319495867425
H              3.8252139553025475              4.053764116998099              2.4931762455640434
H              1.3775255993106015              2.4573984589173965              2.819605089384877
H              1.669083977652176              1.8752548153581148              2.5649324865426473
H              1.850401003210821              3.7816845837337842              0.6183324462498915
H              1.44340682133032              4.223776904694161              1.0662186231429132
H              1.2585923920740258              1.0445838545483697              -0.48757733312589135
H              0.9075971764561301              0.9557554078716998              0.20176075307336883
H              -1.724499770038431              -1.0131482737133553              -2.246776652298063
H              -1.6704849654123066              -1.5650061162062938              -1.7536145859813361
H              3.73749958970574              1.6302645331700871              0.9152136171713385
H              4.0006777670847775              2.2712744849837487              1.2062821619256132
H              4.253921940759861              4.62765816104178              2.640111905182508
H              3.899777221369476              4.011425200312              2.60913387037545
H              1.3520002408133764              2.3984454956077386              2.7759699491326075
H              1.5192524638288825              1.7631591747836333              2.293348620674378
H              2.0521031051894436              3.952794408155028              0.7774007595274414
H              1.4254177028044301              4.225753183574048              1.066812995748671
H              1.0989021980279927              0.8637036070861199              -0.6056177454598216
H              1.1281830246157722              1.104050631530416              0.10426932232179054
H              -1.7825259922170549              -1.0216528583712008              -2.4858611191840567
H              -1.6274419436030088              -1.3630367435952868              -1.8507946214097002
H              3.9668149518953              1.6182721798569797              0.7410297693598743
H              4.305098044393132              2.0762566090920513              1.2115124758969167
H              4.2089446870184775              4.465154582387537              2.918674074582453
H              3.6396314464893376              4.033776616361352              2.7190750879094456
H              1.270522535838918              2.4150483570012016              2.6015637890586567
H              1.6887239000506131              1.9543849094583976              2.2095562691710393
H              1.9182315289509007              3.836115943926566              0.3209005075048072
H              1.613279459908679              3.9772566551841657              0.9486798372171125
H              0.7656107847826085              0.9654559948884371              -0.3306432534432515
H              1.180048419330328              1.5044363854771978              0.0019764166692699398
H              -1.402637210330824              -1.2193876538168602              -2.3655617008694705
H              -1.282416017987037              -1.0331321265566973              -1.7121031431562361
H              3.8502400417118072              1.5644219164933872              0.6423484043910654
H              4.294216989867622              2.102601272260619              0.8315898226344195
H              4.217394826809384              4.3999013727025025              2.9704476050156
H              3.806071164157889              3.982730267074204              2.6519412874713186
H              1.2514330825276856              2.437661938138505              2.6033006266477234
H              1.8125083089139888              1.9139544374525304              2.537899122007921
H              1.8249873186341936              3.8457922551539685              0.12068207275516091
H              1.7036453121232726              3.9912477535549313              0.7835940846395129
H              1.297792750981989              0.7873508713286448              -0.3716618498125011
H              0.9801239853153692              1.2851202920780354              4.8218086834071426e-05
H              -1.4130363995988822              -1.1687391251103383              -2.3976509950933393
H              -1.4247036999393827              -1.4153156185417506              -1.6651579371760226
H              3.9629749571850317              1.4823780559987816              0.7210869447346278
H              4.334825513015312              2.1273224646569466              1.0506582824280604
H              4.212647465930495              4.477127304997451              2.7588276262954428
H              3.6675081452638594              4.026498170913108              2.924058279023464
H              1.3089643418833112              2.2701457407939083              2.395853747063452
H              1.6912381253238618              2.074149635031228              3.1583410712990427
H              2.2769102608392786              3.8060023869590855              0.3633562616400048
H              1.5800708762255007              3.8789941625147186              0.4934164623942027
