72

H              2.5674697787368483              1.7142895424093398              0.8669332548058878
H              1.920567691165254              1.47557436592535              0.615578571475743
H              0.9936748113424042              -1.0131269388530402              -1.9912300429173282
H              0.4596465758161018              -0.6648019229892342              -1.7224209592035575
H              4.795523537068359              2.6089020166449894              0.8213103130455146
H              4.6432518868295904              2.2061490828229053              1.4004557933767716
H              3.7351166332944845              4.632391875963448              2.912801325079576
H              4.469043472514687              4.718954702774658              2.9459259230891917
H              3.3804805469939705              2.0955988489463526              3.4414434905774645
H              2.834569180031302              2.2088590637359857              3.811469530043554
H              2.984607185542998              3.7968684368550387              0.5631285435198193
H              2.773513465061342              4.287934261756903              0.10873642846417263
H              2.4128651293507724              1.3603134067405769              0.9786417017743005
H              1.997845922719776              1.8338378383926572              0.5848672562423408
H              0.7637108258723221              -1.325409372780817              -1.9782425287918246
H              0.47585419043489224              -0.5840344230699592              -1.841471122824993
H              4.564342154359786              2.7247869696982527              1.0229962082035797
H              4.930642328360431              2.0149480800300554              1.158602017172057
H              3.672425098661419              4.515945787186588              2.953914230135417
H              4.401786784101581              4.485848309227484              2.9929171828785424
H              2.949283426493572              1.5977961204156328              3.5635809410729022
H              2.9099883101122597              1.9930103320123254              4.188192476651994
H              3.0172099040918026              3.9355665953521344              0.8294983028829385
H              2.719136605013355              3.9622296108816455              0.1784807821506624
H              2.6006751059214452              1.2509909410875777              0.8941901331212112
H              1.9310605129710816              1.5712459253803568              1.0502253789674825
H              0.8997349956215569              -1.0996124935513183              -1.6992384879168372
H              0.35256582458868707              -0.6041490124282738              -1.6642094391023163
H              4.594995991932059              2.4398563878815165              0.9056540428313651
H              4.867099461169246              2.0447519581850853              1.4504258495387292
H              3.9095124435292954              4.094716543195189              3.083804091773285
H              4.478604488767411              4.645324403693766              3.0329978668495334
H              2.944055899508335              1.9021955444467193              3.4368622077288804
H              2.805983625952839              2.2878979700762216              4.069285695437129
H              2.723057045127306              4.024935190688541              0.7441995026260736
H              2.9423279855145945              4.000595354284751              0.06515750153999512
H              2.2771318725081295              1.6792397852962422              1.4063262420593037
H              1.8849752129401016              1.498301015576973              0.8290237609041438
H              0.4742955322125883              -0.9292057674353479              -1.638840371946685
H              0.16854270973196073              -0.3207315728010833              -1.6037079852508098
H              4.527497979346689              2.4472620886945347              0.8653440073974535
H              4.874546954983196              1.8171003136768198              1.1048795011017012
H              3.9326726174722446              4.296663206439727              2.9840770785295714
H              4.367185174563908              4.966439134828055              3.0442910328582453
H              3.339896558858382              2.3153340501340445              3.210460798595627
H              3.0515431384189604              1.9539566829721817              3.7324681904989427
H              2.4447923077642795              4.108298482293831              0.4973778834135695
H              3.1164160829151037              4.384816901322907              0.3530839190996994
H              2.465658090326571              1.3851522742820548              1.093968759330348
H              1.88258141173435              1.7692905116017892              0.725361202197782
H              0.6644289205622897              -0.9297114688258012              -2.0145045910453745
H              0.30355494331396415              -0.39596004333818235              -1.5407292074918726
H              4.376767464482891              2.135770291911524              0.7096440357569821
H              4.729312679522768              1.7894610826847765              1.254700733333845
H              3.4846312485451545              4.659844934488094              2.977617898180796
H              4.191334814327345              4.758544272152523              3.1234247785831775
H              3.346005931666808              2.175915749283918              3.20901760146203
H              2.823535631487219              1.8609330820255736              3.709292360656578
H              2.6333047776477523              4.113986712187987              0.55681392295995
H              3.000977280930882              4.282224037017858              -0.08011610263710832
H              2.478347760916344              1.7774803468443252              0.9197959405252719
H              1.7924216103505928              1.664532682230522              0.6709548741632528
H              1.137400138279483              -1.002312599423138              -2.0441089976938063
H              0.4724370966948332              -0.5462132882059854              -1.7279362792674138
H              4.838042001721757              2.3240006653835477              1.01112176310645
H              4.944541013544811              1.8882857259498236              1.7082309826450168
H              3.692670016057496              4.970402908870044              2.8429017417916667
H              4.394893955554625              4.686327212533935              2.929352976863506
H              3.0053267811704276              1.9292090994798425              3.2511194535669636
H              3.0045474928509037              2.146782344571946              3.8708098383939347
H              2.914182030581733              3.968676706774718              0.6603020450061863
H              2.8912483202544546              4.456878523760774              0.06770577893476244
