72

H              2.274749050767192              1.7148732709904502              1.1270140485402191
H              2.034112108745792              1.9639455896571107              0.5022865509363015
H              -0.42637121050280213              -1.2730414606241878              -1.781365599031348
H              -1.0698096356658995              -1.6165185100603905              -2.1196404457940337
H              4.9187800920439075              2.2025053742738274              1.5074839123963417
H              5.117372166264262              2.90928003397165              1.4813043868518987
H              4.473145444248604              4.9602262337138425              2.4552259710885727
H              4.328288613509956              4.365743919759529              2.8745737047438236
H              2.626065366043804              1.9996139805017998              3.903665423857248
H              2.911520740283354              2.032537847266625              3.2580058908116496
H              2.974580198051415              4.445268579481763              0.026172008451284746
H              2.858790521742552              3.9797925323689864              0.6076931161028158
H              2.3693289334645806              1.03575570630316              0.9200967754364897
H              2.0259424650496656              1.7044962284305674              0.9162215031143329
H              -0.4690905521639217              -1.1892136986431372              -1.958820734684204
H              -0.9108266779959746              -1.7075761587353713              -2.1117073790210705
H              5.075570960884534              2.2351208563714984              1.3296216174703162
H              5.239364601100469              2.9592064592524654              1.1575386531858787
H              4.466878363411712              4.963353722326328              2.603834405029402
H              4.257778499845171              4.372465833130447              3.0363073485245473
H              2.3441737130795617              1.8986799611186855              3.7698919295793276
H              2.809550382784642              2.2324284494031073              3.2038065313388926
H              2.7970654716374224              4.2566878688952565              0.008591796837439698
H              2.546586988073808              3.9024659196520353              0.5900559632608506
H              2.3722006602719574              1.3631564656827044              1.0374554182240483
H              1.7596777807403903              1.8368785292413452              1.1227370183946592
H              -0.38232971968455587              -1.1968255083112767              -1.7329972879786248
H              -0.947970067563678              -1.4906793932533944              -2.2027632453529917
H              4.8672466081851              2.3303215099886336              1.2551023044635146
H              5.252771174737662              2.899355744612586              0.9106914941113566
H              4.418731903935638              4.8589469766698485              2.5450447666524942
H              4.375002118310928              4.556079760232614              3.1894043496075257
H              2.4903384174120196              1.926910505966152              3.855654931284075
H              2.8504856388522013              2.366480386636874              3.367859278358121
H              2.6311225272236567              4.52569914836773              0.44934414751715007
H              2.8970680213203583              3.827798408752157              0.3900044022833311
H              2.4570136622620113              1.457587227236761              0.9805494522533587
H              1.7166622055028775              1.5801484402114363              1.0656834479449677
H              -0.37710408754810737              -0.9777461500857341              -1.8311805282268716
H              -1.045846132378286              -1.2355116579286487              -2.1596641116361255
H              4.657525703918959              2.1151224521052128              1.1362388216583095
H              4.940953597172823              2.7117821476084214              1.1493039013519886
H              4.22108881186446              4.9303744568472805              2.5041735518378636
H              4.388896175607426              4.646316515921323              3.165338496290771
H              2.7172028367569596              2.0478270074330296              3.782418246359149
H              3.165854900000038              1.8711085630086448              3.2496903973724036
H              2.8051083347995194              4.387746004782061              0.4807957929351692
H              2.813463595279307              3.6300702448658217              0.27636411262869626
H              2.3989234588497426              1.7561271386893458              0.9267500032144781
H              1.7534639980592144              2.0961086761095618              1.1184092322979298
H              -0.09820627137829577              -1.061494681220141              -1.880246470892838
H              -0.7560205660844846              -1.1104686498692127              -1.9783823255251058
H              4.474857633031292              2.188538726447892              1.2694519382061251
H              5.070433663112966              2.585610367900137              1.2026662778020432
H              4.162486348359537              5.0279181052566555              2.6290550687171788
H              4.497213123475581              4.48145107550142              2.969713003481626
H              2.870616343864417              1.6617584367040885              3.5028110335656457
H              3.247104057781617              1.9447390331725412              2.944897503444362
H              3.1880775993563506              4.440182700921545              0.6081827283828987
H              2.7890498363116936              3.850404465973249              0.48498584082087054
H              2.0362354990226104              1.565973269603689              0.8840132348903401
H              1.9484788654777074              2.288621837302617              0.9006948284390989
H              -0.1451232120643222              -1.1232266630603898              -1.555848148382073
H              -0.6801085045385263              -1.3898936906430257              -1.9015407787148206
H              4.730054477883204              2.1928397835001427              1.6017330210853402
H              4.864661126417093              2.6130363806888877              1.0053132828101852
H              4.271339474671616              4.84622916917011              2.574386782074369
H              4.4358000961047335              4.3156644324465745              3.122662026454715
H              2.8648101180643204              2.4543494545829994              3.604377525236924
H              2.991328646070485              1.9248138977679552              3.075679477219222
H              3.2391257016225117              4.510891427322922              0.3594816583968615
H              2.9435612857359423              3.9160139783731056              0.34733296527852
