72

H              1.7494885238817917              1.9652991361106489              0.16378824464903277
H              1.3362505706602017              1.4728923487701477              0.5626871819811409
H              -1.2874064413113688              -0.2931380605251514              -2.233578867311915
H              -0.47166941012346364              -0.23881110554253895              -2.1764360687989917
H              4.282631383540397              1.8089869200193989              1.030535405138006
H              4.701520344164405              2.3009634060437754              0.6413696091629854
H              3.513318781763009              4.128561432685276              2.8178462542468266
H              4.003019535603994              4.589086663602189              3.1743216376046957
H              2.206247998655746              1.463802655362842              3.0153108472805563
H              2.6831591500114653              1.8930589150653434              3.499718302611358
H              2.536610061019861              4.384009155761261              0.3158303766710745
H              2.152244749297492              3.9760910720290883              0.7946743982492896
H              1.6344473161437945              2.0594460640172656              0.142812517058067
H              1.5639616731643244              1.2908780546403116              0.4095581282083195
H              -1.2810920977387468              -0.26035990985920204              -2.1476068573263967
H              -0.6208847305488585              -0.007584017853761682              -2.340681114374834
H              4.638339448356445              1.848434723267349              0.7560992579693921
H              4.289598771478953              2.4888669788189084              0.5769515984589345
H              3.46217552134636              4.423071978110183              2.4415479753758516
H              4.006367767516049              4.6712824871389165              2.878153041944497
H              2.1562447720074958              1.3830277953817995              3.2088994011507945
H              2.6852702357213043              1.8488133327082545              3.4097081025622433
H              2.574427746452521              4.155475224577532              0.423328825065047
H              2.002893282192867              4.223249813832302              0.9027351976689784
H              1.5922967038320597              1.9390116722030606              0.1835595733865375
H              1.3571604716028853              1.2652310567724108              0.4084057258435525
H              -1.40753961429097              0.008224624614962206              -2.2760966903008555
H              -0.7090647013049947              -0.09813026045667637              -2.5336299532772384
H              4.407414189489596              1.8340473456134885              0.6726182196159783
H              4.398562577170616              2.565366868709671              0.4464747593207812
H              3.441044571197324              4.395254018507727              2.631259311245024
H              4.094122666449681              4.668653417353124              2.905172578776076
H              2.2806393509044995              1.614945185664172              2.8104586544602044
H              2.913661199897312              1.6965610931672392              3.13361863682846
H              2.527087475185323              4.405368318980662              0.350691081196041
H              1.9797586539164806              4.57104880499411              0.8520575193871568
H              1.7325103975005551              1.6839636754760627              0.18583163612523582
H              1.5819817878506912              1.143721497107269              0.7278161830722785
H              -0.9597668308323909              0.0033566598364613014              -1.9828783624962592
H              -0.35452129934128807              0.09101830867095394              -2.5578343037155764
H              4.230754035590221              1.8970394400967296              0.6598411334903028
H              4.3496673765973926              2.5873100412016696              0.7316927210117862
H              3.8245267515080035              4.059158290916227              2.6236430493017657
H              3.8926114310105344              4.50195163252087              3.218865925262665
H              2.2088902222480424              1.4382119153443031              2.734347556057964
H              2.7591949103483664              1.8374211122116788              2.9847701883761397
H              2.328700512188681              4.357920373594977              0.19531556442612
H              2.3589444096031302              4.166943611730474              0.8923881208080077
H              1.5648700193374598              1.707742755676887              0.37051019106771316
H              1.6059369560939147              1.2211861822598942              1.0074758045962526
H              -0.8462291183985655              0.10884276173164868              -1.956026601216224
H              -0.21744680609383404              0.11876523811305284              -2.223723477269888
H              4.792479879355675              1.819913483867699              0.5876214591222588
H              4.639915997410649              2.5907206194807175              0.381411577662651
H              4.056103289564237              4.1477426867660645              2.5144581597690987
H              4.002803698237908              4.491729145611789              3.241007765149973
H              2.5592418859820407              1.2994821110105301              2.765644080589796
H              2.682935413404912              1.954915706397246              3.1697778999348456
H              2.613564770082924              4.0990645887317685              0.27764343191181523
H              2.3486779184042716              4.443605917175698              0.8781175328534654
H              1.6602007214068493              1.9387289873994284              0.2744079411279911
H              1.4645367896385968              1.4465358422919496              0.7873530952489515
H              -1.0599283329993463              -0.034739450307484744              -2.18656857105367
H              -0.4429228780847891              -0.01791911106142136              -1.8999210570416791
H              4.424655965274509              1.755798585108693              0.4853522504284988
H              4.707214868325599              2.4381396305687595              0.17798855915874628
H              3.607008207933805              3.9694955206923717              3.0172574183507708
H              4.0117557352434              4.532018538751402              3.1874248195208317
H              2.4117253257533102              1.6477466799202853              2.8171712516656537
H              2.7291121665624534              1.9691958728992123              3.4142553468833428
H              2.6978208570671187              4.247089805599509              0.16755287211724568
H              2.158552011287873              4.009666046355241              0.6298866150669374
