72

H              1.0327815323784915              0.7531703917562741              -0.35585258185748603
H              1.1046965930705428              1.3004821032323766              0.20245272774371953
H              -1.204101882046466              -2.0668341084344877              -2.0038107930121494
H              -1.935229712758573              -2.1582838053399938              -1.6946227612174551
H              3.7387355263198923              0.9558168660305556              1.1754357171011784
H              4.172031066630341              1.4931225684586376              1.0111513955030715
H              3.8667153441091737              3.877467994299099              2.6684513379911095
H              4.443802790369086              4.154098085343733              3.109563285087129
H              1.537161042858083              1.991590991464431              2.898884931259022
H              1.6164717230973418              2.216016188288297              2.2547553105380005
H              2.582805870781491              4.170282311101776              0.29550391517710656
H              1.8717579584169828              4.0132023349814165              0.08991432619645304
H              0.6992104191696235              0.9974631340268922              -0.2216275655583007
H              1.2916908316298235              0.6256772707873566              -0.13889652039890854
H              -1.32968443620738              -2.2520656298537536              -2.1764167416583264
H              -1.9462116260652773              -2.180928183323163              -2.0342091376013554
H              4.043695562802944              0.9143215157131437              1.179492540739279
H              4.418561127853839              1.4756364738239074              1.2256683581950252
H              3.6881255850860732              3.8403666658558553              2.7117361486908402
H              3.9872361569235593              4.2599188551106675              3.269356246894824
H              1.1468955683621764              1.9380843404308403              2.6465552041071083
H              1.8764509476988147              2.293324825933621              2.50811844997921
H              2.7520784084421224              3.8791551216547417              -0.250662262521039
H              2.0720360151127104              3.8692598549160637              0.06735376595879643
H              0.5961803963161972              0.6321518131569626              -0.3317461780077633
H              1.3148770961649001              0.8549340577386708              -0.33749276008137197
H              -1.1079915810569665              -2.344615057716319              -2.515987949737312
H              -1.5774522188117235              -2.2426094619394634              -2.018896434048095
H              3.9000470116846233              0.9291733205671932              1.2468105637642277
H              4.375807526348494              1.4029232674011438              0.9457197236959948
H              3.4785867449033385              3.8198883429170354              2.568041269125681
H              3.8263847061592173              4.258022722696944              3.164982482332099
H              1.9299276260801044              2.1597442334585035              2.7804367532200867
H              1.4853934876351347              2.3418301008856424              2.2501825777120636
H              2.5887663560677576              3.9612710899685886              -0.2999865041615392
H              2.1075921099995294              3.887024831797842              0.29708713504077044
H              0.604405776013541              1.0296948535873582              -0.330372899197669
H              1.2896011501236864              0.885219419921279              -0.5663181187738131
H              -1.0374567056064596              -2.1219629541293825              -2.3085480359830495
H              -1.6885582387156408              -2.5186518093605716              -1.9995299212302653
H              3.405866227081947              1.1285292310467332              1.3131667487338259
H              4.060752221040596              1.3702831967650915              0.9936621718062258
H              3.661357558252702              3.909504348652              2.6261912478814025
H              4.185954743930131              4.17643564398722              3.101207217553828
H              2.030013756573674              2.296311595324587              2.8656014750859407
H              1.6217671679239885              2.0642259720857328              2.3979528096227725
H              2.6361744053359852              3.6860222340954945              0.14838937039854794
H              2.033418967926479              4.02721388681487              0.392406279521318
H              0.7887715118533691              1.0147380238507597              -0.1831697958550585
H              1.104833378023262              0.7632060313382123              -0.7655847067161068
H              -1.2910980001363845              -2.319759208734043              -2.2904862371369283
H              -1.8440358053976473              -2.558834703784912              -1.869248113260243
H              3.8651072398928132              0.8795175326925899              1.243198570299962
H              4.277753890625707              1.5038584871646383              1.2350663531198636
H              3.6052973971762987              3.9898638318986674              2.874351684312007
H              4.2940458367999526              4.158900931399116              2.945308843572348
H              1.6570782222796414              1.9038298158377385              2.823943573588169
H              1.393648165139794              2.24639994713853              2.2439730258823705
H              2.606693974148237              4.378578839947212              0.31675405848661253
H              2.0245504945915687              3.9982006908164234              0.4922409361806534
H              0.7711135698492518              0.9204666915641319              -0.5306523802237052
H              1.3545670967804935              0.9854361761095217              -0.04689900486469315
H              -1.4015898124742237              -2.0783217482199388              -2.300566266440184
H              -1.8468154510985302              -2.475202111633895              -1.7960306580703254
H              3.717965384713534              0.8172162141937451              1.2611564221393812
H              4.238277902116867              1.2661384365038444              1.004389170033754
H              3.7813513595288963              3.8382665825559563              2.74219692014019
H              4.256998800958186              4.176670050130055              3.2480107253357255
H              1.3734965844978637              1.9778092324647654              2.8075471361113786
H              1.7577940670953887              2.3347192104754906              2.2068069732776667
H              2.3877562364177383              4.362207922053838              0.3234750504091246
H              1.8314250299656383              3.876273516711532              0.35319137192260985
