72

H              2.05011689961113              1.3972552482942815              1.5094500524570995
H              1.7339978011913484              1.4738987507202157              0.8219890768756953
H              0.2883422271679485              -1.11426168689856              -1.7274669581513578
H              -0.19961208040201853              -0.5684272848561387              -1.3841613801940669
H              4.5663497017412205              2.3118473249210654              0.48828292333582574
H              4.96147775236485              2.2201405117019055              1.1304410515126817
H              4.029618642434185              4.301364996568931              2.747938614394054
H              4.134735227817751              4.982578826282972              3.0836896546637216
H              2.826042247096375              2.8254560557560993              3.5245714483922015
H              2.945729222772719              2.05079036903881              3.936837868036386
H              2.640134802232272              4.517109704846234              0.4153962149889836
H              3.2316431854294456              4.062894562625814              0.6171018050066343
H              2.2815891128968984              1.480155703131021              0.9478587839377601
H              1.5649224207229508              1.402819440829892              0.9078067952910268
H              0.2080646573123947              -1.0302705019229235              -2.0657583974360225
H              -0.12709974005735003              -0.6589110472129153              -1.5602798891744496
H              4.510565085666128              2.0542152283671546              0.6524952352733666
H              4.917352307261188              2.0128589202238927              1.186852681947084
H              3.377568919856886              4.765416732778292              2.6438029689357485
H              3.957327531402405              4.769170631800094              3.082931932862437
H              2.708786064586746              2.60567186586287              3.597418465198866
H              3.0134129433295724              1.9304331239754464              3.7915274201462674
H              2.561287256429058              4.321173286710587              0.43652928348058634
H              3.255416919781157              3.9724823824036              0.33928482429198625
H              2.5165087075540256              1.6665847331751757              0.9320629072972283
H              1.8126494794654933              1.4705484687225805              0.709608792128857
H              0.8103011850577871              -1.0164143910908496              -2.1821869999422803
H              0.1660188864042271              -0.9232288694574069              -1.7295994902562002
H              4.8574749163781386              1.9642763181774239              0.882684752007016
H              4.946387468317137              2.3668029845604273              1.5515569768635513
H              3.5523063467037885              4.66926952130525              2.453738517967333
H              4.0946348221197875              4.717915250667913              2.9436692291368547
H              2.733107986779584              2.5921843835696476              3.4227135880022153
H              2.9422908609471055              2.1868069462640034              3.983745300894765
H              2.719856974944354              4.296876032337466              0.6737560561504787
H              3.07316489248116              4.061061595560254              0.06533727990524663
H              2.3335998858311857              1.5512154948476928              0.9844221762589715
H              1.6520416524978194              1.3310150173896238              0.7291425192157978
H              0.8661412487801224              -1.0606176624353982              -2.022922320132099
H              0.05655441096323608              -0.8645803555406649              -1.7574540280929707
H              4.851903539986201              2.5310415066931498              0.7101047460796754
H              4.89935648783788              2.161874673175337              1.3545295241057094
H              3.6031418816387983              4.544128106560864              2.7181068540644024
H              4.276530315634425              4.679562375040424              2.8047155022965606
H              3.111487403209003              2.473466750703358              3.288175696611311
H              2.9853541060111137              2.2291294916930067              4.12516918393136
H              2.7337522645994152              4.286412961008872              0.7600888320481555
H              2.8571475639281574              4.108695300972587              -0.008059889591587679
H              2.300057183506566              1.296703093718214              0.9471405305305449
H              1.6645307510986955              1.5999750319800001              0.8003589644059304
H              0.6605878031548615              -1.3262060485259244              -1.9788326162789733
H              0.09579655668604857              -0.9844690140124526              -1.7776449591489027
H              4.73360077460056              2.4081001527116084              0.6072635225295113
H              4.996674277237758              2.2453181822147505              1.2941669779749976
H              3.592256115207936              4.353623744327522              2.6989933437468765
H              4.243142066252594              4.499472011354459              3.032101323689181
H              2.8612275274925034              2.210073034445953              3.671401771215171
H              2.793851251657007              1.8199528491727481              4.311501080274064
H              2.9254849395902838              4.380378304483632              0.6424767563328103
H              2.91123006955473              3.9284991170295007              0.08699234150852886
H              2.2335200714120482              1.185329798985537              1.0427104310513142
H              1.472106991835349              1.3568009379593273              1.0446060735315734
H              0.5555572058515688              -1.2315779224426957              -1.7576956815775286
H              0.062888439120938              -0.7787404086063555              -1.6683370177709387
H              4.91582918303715              2.2226696053582793              0.8256630511089761
H              5.108703636319179              2.2103626999336              1.4600294092980186
H              3.88505253875508              4.268016294195741              2.7107823655546115
H              4.3355243592543875              4.653337398006972              3.1954169549898253
H              2.541204787235448              2.2277246022455177              3.6036804332363053
H              2.800264580633402              2.1587537191716106              4.330906896133947
H              2.7297356953211844              4.336110227547828              0.6414229231411012
H              3.1915339879912508              3.9405267533679793              0.24078947271407336
