72

H              2.2107943231080336              1.6402349199901196              1.1500745113551327
H              1.9581133113497735              2.1462397673431854              0.6278673680527872
H              -0.4626485383298661              -1.2479565325094788              -1.698096734989143
H              -1.1100441597818411              -1.448921672908266              -1.932661025494209
H              4.830001866478962              2.2384566602489384              1.3557430753897897
H              5.067310555982265              2.9511746078244103              1.4525881028202607
H              4.533815702996655              4.992975250261231              2.39092198503217
H              4.475869359075997              4.528030147182703              2.9817076650288517
H              2.592213299910075              1.9060749016785647              3.8971671228473572
H              2.9005940459505277              2.319819199923604              3.2735579595759154
H              2.9991493017260247              4.441268964423452              0.16943712274486056
H              2.838673558823188              3.947655698109926              0.6594044960015946
H              2.4625848818005207              1.1481758741708612              0.9304422938916291
H              1.8737070613939546              1.63064252800866              0.8917158439553433
H              -0.5174330419085319              -1.1150515114175752              -2.0004290589466693
H              -1.0080265602964391              -1.750274968693887              -2.0237663832712207
H              5.038309178056986              2.2254590182371086              1.2562942821965901
H              5.1771994675678865              2.8780439683638583              1.0155892792548353
H              4.3663971833583055              5.024072464288641              2.6289085821251157
H              4.108918689311718              4.46122027536899              2.9879520138716558
H              2.4107113197166776              1.9794571978728834              3.884474505729868
H              2.6492118703012246              2.2108104879542516              3.2508310313706805
H              2.7856194152034597              4.163969739452713              -0.05691174575890547
H              2.6478746875163806              3.9180227027558696              0.6382566040048016
H              2.4104522136224826              1.4133574288981914              1.0484591165198194
H              1.7972063338420656              1.7756860125490395              0.9582243378373126
H              -0.2881388253576739              -1.1118086746904325              -1.87275232544763
H              -0.815403274269806              -1.5063994933629026              -2.2400949496246
H              4.943845380041359              2.3412200877424847              1.4250250716004969
H              5.314083158083528              2.842884398626468              1.0446816324225783
H              4.311129284958633              4.972239996083206              2.469951775056018
H              4.2886888920729485              4.529662332160123              3.1046531688712973
H              2.338341337398319              2.065790386719318              3.78941005404971
H              2.9328663524587646              2.3098186819573927              3.4405051183633355
H              2.5818555479511685              4.372325483518068              0.48254553155705615
H              2.8820376736182776              3.725991009958496              0.4170674516889535
H              2.467465946719851              1.3579945176071873              1.0800718542188568
H              1.793169031499763              1.6777849932117732              1.0680252938722326
H              -0.24366969365504326              -0.9632759683899406              -1.8406169771923695
H              -0.845479590695311              -1.2403018535097587              -2.1260798907736476
H              4.5377279744448344              2.1497115139189598              1.015782367412698
H              4.905560588633899              2.844525433585368              1.1592159907624144
H              4.132556837276012              4.807621085542671              2.4834834737067997
H              4.459645018375124              4.713559859717192              3.1667162690079453
H              2.7773112654373624              2.1422566966993513              3.635965477607145
H              3.3079195196869824              1.9581361713677132              3.1830629043755576
H              2.8028008161982227              4.4213468551030894              0.4621458301987711
H              2.6854986043644873              3.7555838292656243              0.26222496085934754
H              2.3488527859152217              1.8617713684118404              0.8964608569541553
H              1.7622600995630624              2.078478718199604              1.2072312642456529
H              0.017225896468661742              -1.159394015016742              -1.8564878534840976
H              -0.8109051223094826              -1.1146822896022341              -2.0505451146777007
H              4.481050357156763              2.0700068774741456              1.1564500150539836
H              5.095712351276599              2.5295442857272              1.2497541220174448
H              4.058631176696483              5.009169022810769              2.6896617839140875
H              4.442911575833128              4.449271460749056              2.9985185502640648
H              2.8720627805576306              1.7198668653141944              3.5580447605614265
H              3.2255703695136155              1.6356079041513973              2.8863327244611265
H              3.098906468891706              4.492295533038574              0.4941800366730775
H              2.8562874548595287              3.781304952615656              0.47996633774300207
H              2.0547938070429033              1.6107329322591235              0.9579298080253908
H              2.037266134306123              2.3675563500370123              0.8739968141000254
H              -0.0017407149102096485              -1.1841140678457394              -1.5341727826901386
H              -0.6773445857314788              -1.3935978892793919              -1.903659240028363
H              4.874053165547245              2.088899229839394              1.6417874095879403
H              4.866342734295276              2.63520719634852              1.1437229335007018
H              4.462623832427542              4.771339515482051              2.595157841110032
H              4.433878619297013              4.331247342946812              3.199969249693921
H              2.681115078747512              2.4182993450159347              3.594844868175068
H              2.950566968972566              1.8778202791604335              3.2127155620829004
H              3.253498075439747              4.55462595944001              0.3546748162182074
H              2.9628800294483324              3.7924274861454017              0.3201283784010014
