72

H              2.216079737612763              1.649340083582085              1.1479991839935455
H              1.9649065170460416              2.1315024683758668              0.6157822954401309
H              -0.45413508082796744              -1.2463005992530636              -1.7000458990225857
H              -1.1176039423145157              -1.4673274086446706              -1.9526032805236484
H              4.835897480174986              2.2297002537699              1.3680024935488326
H              5.071892165724804              2.956564282841611              1.4595579475700302
H              4.530895054107156              4.987742132798821              2.3962272983212887
H              4.465025872965395              4.518499819971854              2.96847521802271
H              2.5960351729719107              1.9124721733428505              3.8976105377525148
H              2.901595498934419              2.2972357004173647              3.275444971169952
H              2.9953943339355167              4.440537792989948              0.15805695145072915
H              2.8418372519967665              3.952822798599105              0.6542024362853114
H              2.460722778225046              1.127305264961714              0.9280961029428906
H              1.8817916216647739              1.640506581518353              0.8948029645671453
H              -0.5149129912737935              -1.12102211928252              -2.0002269373257
H              -0.9999377408578628              -1.7491245136844629              -2.0300467645602165
H              5.045749602920155              2.235412419467593              1.259205657021962
H              5.181719679525401              2.875526704322008              1.0279086047341377
H              4.3760695397636615              5.023754803731698              2.6270966855323326
H              4.117670504685987              4.449705258106427              2.9925317498822235
H              2.4094610692865737              1.9784011173341907              3.862604840720351
H              2.6542483768093224              2.2043790118124966              3.2579360116858935
H              2.786343258960844              4.170647921023095              -0.05805236612716368
H              2.636283757433193              3.9166603572065357              0.6387870157343633
H              2.4009095361025734              1.4125460846825397              1.0480109815864385
H              1.7987136478215606              1.77860389463              0.9726307390216837
H              -0.3056569282218328              -1.1247116334936482              -1.866299391004383
H              -0.814415243125987              -1.5005660184111769              -2.2317118965069818
H              4.942595524726739              2.3460897101351574              1.4119267761017862
H              5.308429601713677              2.8435486416635993              1.032547586476984
H              4.321594534142655              4.9613432692802455              2.4774455888658444
H              4.295262540281778              4.532732248335834              3.111583923567564
H              2.350320649270419              2.0568363849369096              3.7953886872580602
H              2.9230244750477508              2.3160525681510515              3.4371947664351685
H              2.585351059607315              4.382143060914012              0.48124745906515765
H              2.8837668251300568              3.737999774497457              0.41466282649119285
H              2.47064286626601              1.3643819474954098              1.0732287298144958
H              1.7838501614538242              1.6672793446838987              1.0676416999097316
H              -0.2662547586062297              -0.9672250410783104              -1.8448242778952502
H              -0.8536350806886458              -1.2342751330069814              -2.124428199433811
H              4.544063265588818              2.141259109498141              1.0251784068688483
H              4.906767956164319              2.839557437533697              1.1579086509708623
H              4.136296369299548              4.818812118659542              2.476416157762204
H              4.457698343432706              4.7088937055269575              3.174874844824323
H              2.7749907811626566              2.1347020842654416              3.649319606524522
H              3.2974038599722406              1.950770648242074              3.1880967615260083
H              2.8008397741199547              4.412385350433974              0.46328127307248296
H              2.6965805169997408              3.7501740439413043              0.26274904043595576
H              2.35640497561164              1.8552334294700732              0.8988856696136065
H              1.7595996907946037              2.0819621556290433              1.2017570729382776
H              0.019305251778398962              -1.1515759551608207              -1.8581609655538416
H              -0.8157574860994815              -1.1120830670114006              -2.046707201967693
H              4.47101470162013              2.075971400589201              1.1644609656317362
H              5.100480167517923              2.5353458908997286              1.2463984092430394
H              4.062298412000375              5.017372648105491              2.68341349428831
H              4.4496898364737785              4.4468014328200285              2.997437793105438
H              2.8751680676550544              1.7101213669237907              3.547900678977188
H              3.226864183333596              1.6584323687513869              2.8901157549180327
H              3.1093196428803846              4.49141699149338              0.5047389206655685
H              2.848789576994889              3.781912038292063              0.4828114426590027
H              2.0480836478628754              1.6136449496115113              0.9509018485062507
H              2.033854385608711              2.359712953391371              0.8759833063389467
H              -0.0006554307008294982              -1.1751141462894985              -1.5268089132698612
H              -0.6852948756892826              -1.3978789507924867              -1.9084887843089402
H              4.863736913298072              2.1031373058422718              1.6353826072392665
H              4.863759281191753              2.626518171887176              1.13742391510759
H              4.44865737625373              4.769931815367813              2.6013255716648542
H              4.433429811350716              4.333658960190553              3.1877905162695543
H              2.6977683961968135              2.418470839439972              3.5913912301664657
H              2.9518272962657264              1.8904769372656574              3.2047080698742656
H              3.2568701516923424              4.558956795153474              0.3571074784130355
H              2.960524794008433              3.794531026496767              0.3193183593065658
