72

H              1.6094533412736503              1.080969868820051              -0.6461182236839446
H              1.3382644999827602              1.2574539041117483              0.007930275948667844
H              -1.7848052983577505              -0.6220213152881174              -2.420328806368098
H              -1.3568268861816073              -0.9373143185758881              -1.938359795599021
H              4.0117700379148795              1.7221222513573344              0.7314518010092294
H              4.400287441193072              2.3514210240562705              0.8085191811692063
H              4.043716122238669              4.444351326324175              3.071665043700368
H              3.943343846381556              4.240850215208488              2.3889816929040206
H              1.6220377196405285              2.3770160247242624              2.25122796995514
H              1.7898906634572835              1.7802422915186031              2.6859888670457437
H              1.7235791781322425              3.699024690863567              0.3818923930800668
H              1.614345529080705              4.242518809194631              0.9072371253089732
H              1.6525461454908577              1.2361071226821634              -0.46478561340287006
H              1.0644130965794742              1.2942108307454525              -0.09199647719177216
H              -1.469309713006594              -0.7791573937061862              -2.433300181905159
H              -1.1306480397651395              -0.778157380846427              -1.770533362747508
H              3.8853303817773877              1.7966540967577966              0.4251840768275718
H              4.362822234195924              2.133190665135228              0.9502525420684835
H              4.076063407569686              4.1053850762797985              3.3279935276856376
H              3.714764115743026              4.144360147345728              2.6677695137754363
H              1.4160464722836936              2.493848219520942              2.414444115033371
H              1.7992610194544065              1.8247721551435832              2.6488438458446613
H              1.7479113975692933              3.8041132225079557              0.04527444112949859
H              1.5662922767897274              3.8320178307943955              0.7517251924117629
H              1.8559239571856712              0.9786399757621592              -0.39053480565083404
H              1.2229632665251775              1.2450205230438036              -0.057804151896193236
H              -1.3908220467171881              -0.9224940384880534              -2.426781326724856
H              -1.0001592500356642              -1.016122861422882              -1.7455236454521763
H              4.193085152281096              1.5764412500143705              0.8540099913393336
H              4.587838499696811              2.233071657036037              0.9158756660755507
H              4.16386442051695              4.453085509337878              3.1450090098137977
H              3.762757844404292              4.155544948495601              2.6104212625871797
H              1.492716840430006              2.403940439569328              2.6133454299444567
H              1.6531402662664543              1.725754619161707              3.041198751831622
H              1.99195759863086              3.675775561378377              0.18034425931945985
H              1.5375926422407076              3.9757126717984086              0.6934051214882121
H              1.7729615604956115              0.9763722240214836              -0.38664366248910526
H              1.0448034563332358              1.172886415239895              -0.2332028020688857
H              -1.6885867870556257              -0.9556974272540535              -2.5085786864342605
H              -1.308907553359129              -1.1124169060620421              -1.9162258830461996
H              4.233737748538065              1.5344426723953566              0.7098927899641218
H              4.417896868475715              2.2418230327645556              0.6552671692159904
H              3.766573450472886              4.732116953026985              2.990120213666104
H              3.772938830566454              4.113996727126722              2.5870402019270435
H              1.4184000538859367              2.3852499895128303              2.750998481112799
H              1.5453367916615477              1.7733161359282665              3.24101451452532
H              2.0579256584730943              3.78222116453763              0.4418524993122978
H              1.372098130369608              4.065606512517478              0.5194442041357382
H              1.357581283998336              1.281217386183437              -0.5763986290251035
H              1.3704386727768392              0.9223952296019353              0.013815937743034114
H              -1.8202218188927353              -0.8595272966645573              -2.4968907929917785
H              -1.4135542387702298              -1.3179097656019703              -2.078639209202973
H              3.643702642327516              1.7472413495847428              0.9337825997498064
H              4.274835707284138              2.1452125219215046              1.0110572108482192
H              3.791819346294997              4.388599313917747              3.1026944840236688
H              3.931568683620137              4.2964416346126315              2.4188594198185234
H              1.3575257357121644              2.0434153381432036              2.4644715075079233
H              1.8173191122870411              2.089517547758003              3.02847577238629
H              1.8765638127973998              3.9249589405857024              0.6779580677902569
H              1.2813245661032902              4.199628268952365              0.9268158254981064
H              1.4697533166586931              0.9819864418520687              -0.6338628648806209
H              1.423590857552333              1.5017024826303174              -0.19125687322837248
H              -1.771785524258913              -0.6518705446107337              -2.3007390050922285
H              -1.237957300761489              -1.150373188117484              -1.8845421922932217
H              3.7899602905000127              1.726593426020257              0.912479278859208
H              4.038143484409881              2.423064619105631              1.268181728453755
H              4.082737260486047              4.399424852733237              2.9907840140993844
H              3.880582638472684              4.231378040873064              2.307876659948816
H              1.394046427556964              2.363753317807242              2.6581454502445765
H              1.6287177022656776              1.6592795541844474              2.735971804043414
H              1.6708433226101718              3.7273280451505135              0.5415049991927772
H              1.4636433482295226              3.994256417929747              1.20247049513713
