72

H              1.6303079180526021              1.5535485380807572              -0.2981724706827607
H              1.2110220090167438              1.1491961286848238              0.15260136554128584
H              -1.494238767665691              -0.39597054034680684              -2.4993722158268032
H              -0.8100753499935613              -0.6881887150570273              -2.421416111290832
H              4.5519593533392015              1.6529603254855925              0.6754984358234577
H              4.735501650569727              2.471742023245674              0.6743902255418311
H              3.642404615611037              4.280670377626103              3.2043248084996656
H              3.855638877004152              4.653247337320381              2.505921050311165
H              2.024714761951956              2.0674420061386747              2.2897677082982466
H              2.0446683388185978              2.158986360243733              2.9954786616004605
H              2.273061973323548              3.7411640526023993              0.4110643271589623
H              1.6040599284076589              4.06683936334563              0.6915269611403888
H              1.503501477347301              1.8853517182082198              -0.3881715218202727
H              1.4493643783825283              1.2278086743014052              0.040857640570452144
H              -1.4234932074744302              -0.36932673933422566              -2.2334897993089253
H              -0.7260285325661114              -0.6242840113646082              -2.1379490013936833
H              4.048538599113665              1.7508965253836393              0.5252515386246145
H              4.375519251390488              2.3971677641881612              0.6904592675741289
H              3.7794340703071274              3.8742015399256573              2.964449302146027
H              4.072768176526861              4.530476814275151              2.7017518947122046
H              1.845705270721756              1.7635497467525116              2.606882972448604
H              2.065305498917839              2.100403448139502              3.2350642540653602
H              1.9884386666480276              3.9690672005735332              0.3969855588344567
H              1.4774154754200743              3.9678807340997952              0.9462714307880817
H              1.635818215906859              1.3930052269639193              -0.15628493775443755
H              1.479493877656027              1.1585437075754983              0.4963875671511534
H              -1.5249509442885274              -0.2646586503348563              -2.0355325325830163
H              -1.0258996960071878              -0.6616525917391118              -1.8973192164099073
H              4.05944424938495              1.7185764652060636              0.6576794911121548
H              4.306513939706088              2.3630400528004913              1.024689122371737
H              3.7859578743054363              3.9199546811919306              2.949067127954805
H              4.165943012066064              4.428350783910754              2.5199556823373372
H              1.9403117235887366              1.8092766251053787              2.5367676129410386
H              2.0448430729080878              1.7448343856082245              3.254898622215309
H              1.966443923176644              3.9793336986358208              0.5287978426774256
H              1.6518384211445327              4.29843312863491              1.0999123137281186
H              1.6546723661462772              1.4363143525962263              -0.14988044879511428
H              1.3824089817193599              1.1097188111049876              0.4160808939444616
H              -1.7697564672881276              -0.37957209633784056              -2.31348848286605
H              -1.1043468000031906              -0.41165695443760925              -1.9453472358944948
H              4.16237415988815              1.6240631402640116              0.6179010463829651
H              4.631574514166376              2.3198179832763155              0.683365411395498
H              3.448833847504557              4.120939652772713              2.970386894737658
H              3.946414749224123              4.328441450948689              2.519770490086125
H              1.8419664774455347              1.9714327500949262              2.334611033082982
H              1.914260016490703              1.7089878332776716              3.118859508341809
H              1.9878004303919303              3.8649404674602463              0.3039829197972681
H              1.6812692968620349              4.2863922831750285              0.9017188200398363
H              1.8377293229700218              1.4419124141162223              0.06442152032768937
H              1.2904415937592182              1.0153532383988086              0.23333131071006843
H              -1.5800193098129156              -0.3786289973167278              -2.5002596880371324
H              -0.9082445283512691              -0.3297057597755414              -2.0604786398572514
H              3.7572082396820297              1.83225353890792              0.813404359092246
H              4.505903892306225              2.0937972301716856              0.6029781159579004
H              3.464622403358856              4.087945974595653              3.012842165567866
H              4.000494894889502              4.570859985936661              2.7687203018806783
H              1.920127698465241              2.0562909518179127              2.2829757704312907
H              2.2463092417182544              1.7711921139408153              2.9532893520858288
H              1.910945202270092              3.854347031824081              0.17758840119797828
H              1.7375672475559358              4.246711097477631              0.7950720811538706
H              1.769664649082182              1.3142242399056032              -0.14923923645198972
H              1.1856956010775743              1.2582903219943158              0.3818973778106875
H              -1.3931868548888537              -0.497858061813763              -2.398699803233767
H              -0.6530990015214342              -0.3844474853469784              -2.095730851565519
H              4.239223892070333              1.7328262145838822              0.7244980443696852
H              4.5155300090606865              2.3977888981658353              0.7476517876131187
H              3.65237651357608              4.356928053765895              3.1491401468607467
H              3.849403218109043              4.571813246203433              2.4708669940668444
H              1.6977505383638365              2.1595322278066678              2.525056843171374
H              2.29613308753984              1.824942104311844              2.83530831557182
H              2.200949649619688              3.849818847493804              0.2116986558828246
H              1.7628263496842267              4.060162389320688              0.7938166512638556
