72

H              0.864026013235838              0.8949933744742825              -0.41103044244584147
H              1.4848046212932815              0.748524031880257              -0.5510007127133888
H              -1.201037116966765              -1.708740837812286              -2.471513159477798
H              -1.4658851956696302              -2.1620678276867347              -1.8150640031411882
H              3.5519137956966667              1.2678088326084003              1.1127582367808333
H              4.1168749935171265              1.736451637741211              0.7973062574659479
H              3.9653699497592743              4.3242965620508595              2.307219970260734
H              4.024512461755972              4.123970277410683              3.0654191861361846
H              1.6024122055796832              2.214600585239936              3.0785291311068996
H              1.908898314894156              2.0655744572710986              2.3604304759148453
H              2.495814155070568              4.018408772237115              0.3067239813555606
H              1.9380374394988873              4.282011109502212              0.6928867265696257
H              0.8335619860075881              0.6829704764025356              -0.6466520933857411
H              1.480736138329896              0.8934573868720891              -0.38674780999577524
H              -1.430497247753282              -1.724021949986499              -2.2643790097409076
H              -1.6946667886322775              -2.2535697370191197              -1.7583968534394856
H              3.804025444681433              1.1481632583206565              0.9033953563890996
H              3.9877245600018774              1.8223730851316342              1.250696769809117
H              3.797650315015645              3.9589203254625978              2.477375803764302
H              4.084947046770004              4.194485864334588              3.140718059893541
H              1.3658178953610793              2.150158615279213              3.0269733960327025
H              1.6291769682202366              1.9270259946091186              2.3733367101188536
H              2.6349610106407444              4.292229377254629              0.5458505509762797
H              1.8910265498106917              4.016292574923765              0.659532262768554
H              0.8531828577869314              0.8000858931706726              -0.2802570659179359
H              1.5650447359217663              0.9235785580175441              -0.24474578988343307
H              -1.5196977234670974              -1.8570122201361885              -2.299690940816259
H              -1.7331570483681336              -2.035713802535417              -1.613178940351268
H              3.512845692497473              1.1942273024763175              1.1972135055576667
H              4.142221598733695              1.6054652255756343              0.9907339416324104
H              3.9496686909845495              4.19850341662306              2.3750217336403825
H              4.022157830657657              3.8433881018759495              3.1003179395261373
H              1.5190178492960456              1.9680319193560565              2.6619430329805778
H              1.9050057998552263              2.2206910157571427              2.1581531196419124
H              2.412205337223482              4.426959841379464              0.5876959162979819
H              1.7716671024234973              4.085308835777581              0.8094908866762999
H              0.7805877972653988              1.2045664293804739              -0.32227434360416274
H              1.5237801921142062              1.2539197137686169              -0.32262124777861023
H              -1.4327494581455413              -1.6976626151246978              -2.0831230470298383
H              -1.9968342854392633              -1.863536433146177              -1.5598345179168775
H              3.381239548827394              1.1779004029065012              0.9937342933946591
H              3.8226834358680364              1.6896849031224743              1.1670558897528185
H              3.9786206817549905              4.186366177045143              2.406193682396984
H              4.030821819981481              3.904467513006236              3.1240400319516697
H              1.3355881117653323              2.139867525963865              2.7556323018587285
H              2.033583541960958              2.053248192976286              2.2959118116339536
H              2.394116522936864              4.017378707972896              0.42668791821419366
H              1.688495239968352              3.941387860681862              0.535093823168728
H              0.8897982714438253              1.079151850434971              -0.6615276093017494
H              1.6036169948262513              0.9210022626448688              -0.41199562661170647
H              -1.5563071637077033              -1.9785356778956356              -2.386322220858669
H              -2.012486284633201              -1.891401419518936              -1.882803174964857
H              3.9606016991904305              1.0550239968860617              0.9908944184908717
H              4.399728743960574              1.6734073054411662              1.2119892999208473
H              3.73270617384294              4.405702889523598              2.412260965563588
H              3.802925604745611              4.137727146039849              3.1262056963573737
H              1.2807511902929618              1.9297533302022942              2.6868835211438604
H              1.8851403474791224              2.216508014296733              2.3674077816193173
H              2.57172573264689              4.058113302557103              0.1998666739478065
H              1.8471802171303071              4.077191044498468              0.2549009970467908
H              0.7513366010157413              0.7381443476093377              -0.37098268098921305
H              1.29200569015619              1.0762623772981241              -0.7449956673129611
H              -1.4089577169186507              -1.8782513704746895              -2.6649671379431696
H              -1.612514574285718              -1.894264551148971              -2.023195324283557
H              3.8680574212808523              0.9901305534656119              0.891034581762951
H              4.2205490122288705              1.5654192612784994              0.8839202786675535
H              3.7490772179027534              4.279452170645877              2.4618902356095207
H              3.489498438071884              4.240175071082985              3.2021122851733903
H              1.5505150183563918              2.066388043404375              3.0334482884266003
H              1.5624806045613018              2.2602314315537155              2.386153200465273
H              2.2447858010462207              3.928807368566242              -0.21948971952643342
H              1.9763597258079508              4.003641652380239              0.4388482864786323
