72

H              2.312515516102026              1.682072124985884              1.331087019315206
H              1.8241551352226806              1.5738763533366014              0.8153008320738633
H              0.30039739727339393              -1.0545775086094018              -2.025708472427099
H              -0.461231585244507              -1.0787005831532834              -1.9493221063283022
H              4.61857463799995              2.24891961818014              0.7985071679173656
H              5.034477099848946              2.5597667446472623              1.376640314316845
H              3.8152530195564314              4.653725541375076              2.481606591380242
H              4.272455296913965              4.823510219121545              3.0029969456987198
H              2.766505404210171              2.3537465033196976              3.480025270634809
H              3.257684781654201              1.9371492865761124              3.639052218920571
H              2.581411332517252              4.550682485002426              0.35189278675532565
H              2.8338245240078868              3.8819481444008432              0.2820760733527572
H              2.2100024198061554              1.4371303247791352              1.0060880160407426
H              1.537539903282466              1.7997252639508585              1.1699079568898392
H              0.4020725586387135              -1.1638891996632674              -1.9895095544234143
H              -0.2872392843711638              -0.9903291515969115              -1.7756758074557526
H              4.835682139918008              1.9345371346504714              0.7686378919635293
H              5.082137104343951              2.3091841023319617              1.3270897328272955
H              3.7001001700136036              4.689040777077679              2.7568801084583368
H              4.358382183114069              4.643970513417894              3.1589381704217834
H              2.7683376830595527              2.1307284722680504              3.4149136427460864
H              3.0473501409696535              1.539759986376711              3.5317346768982447
H              2.9375266172819323              4.622493752085676              0.31575820900717816
H              2.7518503772658542              3.9024319561195506              0.23003162004343952
H              2.038238079340007              1.7441414032404554              1.235171282856343
H              1.676213053201447              2.2595288106033635              0.8960793731758949
H              0.33794972317402083              -1.2956151259321826              -1.6124657103548845
H              -0.3218567261629201              -1.121873415057528              -1.6382443105034876
H              5.0133296500908715              1.9202625082056688              1.0546955820768509
H              5.075315518088637              2.5510280727287906              1.3400028825259722
H              4.283188787040358              4.588520899646747              2.6220431742943453
H              4.390224363717857              4.730051400056029              3.312176433238798
H              2.386419253217386              2.430898850623573              3.68052984275266
H              2.9426162686007635              1.8788175799497493              3.747626690060851
H              3.1401185174430233              4.618077279596838              0.2824648470953211
H              3.0308649226637834              3.932814553859648              0.5189577073734795
H              2.1651983360491927              1.4928626357419534              1.2562453279457837
H              1.6752712739854356              1.7813068585363392              0.7749546271103939
H              -0.1525787098757244              -1.1561568567530722              -1.745254040989371
H              -0.7774359424642279              -1.1471456503226596              -1.6034853582654465
H              4.835897121964323              2.1548830032984063              0.9117545487563904
H              4.886011906759771              2.634098587532924              1.3689286931569125
H              4.280825032423553              4.85570329246005              2.468585434027951
H              4.226178393305435              4.939636991260094              3.2270701224551157
H              2.3096658408779214              2.558899335980658              3.8061882799626865
H              2.8826309070165452              2.0668874838924163              3.7499786507138038
H              2.895078922576563              4.257344764819589              0.16937775369999475
H              3.1411804404372186              3.889902562644995              0.7073389391734951
H              2.4383494425427688              1.5138033861518891              1.1626441609675942
H              1.7360214739000437              1.5896678804735282              0.7961116892409019
H              -0.027218274968890732              -1.1555909893540615              -2.1317821188083603
H              -0.7227124283436615              -1.3241145042364941              -1.7247972870135893
H              4.792191405405855              2.1358983854454343              0.8419647607992609
H              5.174834269434923              2.7399867679460406              1.0999964107776172
H              3.9681458155735263              4.994098159626305              2.36091156038185
H              3.9474843340804546              4.79876720247649              3.1205421825703574
H              2.226628493173346              2.2147156752166386              4.006433403688039
H              2.767697661147747              2.300785328961683              3.488886881710282
H              2.7661969880463873              4.266899458261455              0.25188112342622876
H              2.9310728325460977              3.72530005612821              0.7732254715715757
H              2.3793280880532355              1.5164718186973885              0.8691257690566527
H              1.6986745120142772              1.4730536080965484              1.0207621960264097
H              0.2638066671982902              -0.9930713457463907              -1.9873812888948101
H              -0.46861750555801024              -1.3033773515186715              -1.9361137071154777
H              4.83628997312078              2.0639704704876607              1.0549846037886235
H              5.198637442324462              2.726108541907713              1.176436782722032
H              3.7638613856227567              4.774694232762924              2.4331761571886568
H              4.088663201541882              4.721382941348786              3.03770668002339
H              2.3090759932350693              2.6573825014420978              3.6239792031965186
H              2.960480523224994              2.292809782194009              3.7587991262117013
H              2.46839734378516              4.2671873926462744              0.4623241522957506
H              2.918923690554742              3.6177644096333355              0.37149653983746345
