72

H              2.2124926701379186              1.3013186730628992              0.6626797208000079
H              1.7388128861586891              1.675934411941718              1.09532677724168
H              -0.933842902497765              -1.0115995494603747              -1.772356860630707
H              -1.1927865936241058              -1.224187306917266              -2.3211604808899025
H              4.722106257310075              2.270899470180395              1.156343285871436
H              5.131247330636489              2.7210019662092666              0.8209308743256506
H              4.328682687065858              4.921552312461927              2.5796223314396185
H              4.6826193913882515              4.495475809690491              3.116119544896689
H              3.111119375206952              1.5833116470764141              3.8287713289379997
H              3.266615458705794              2.1832951417166195              3.322336152815094
H              2.8987193687637767              4.480821141046798              0.8203721311976091
H              2.7290802581956513              4.033015475164854              0.26477711470024745
H              2.249976404546031              1.392690627850824              0.6119624878153078
H              1.7219064748519233              1.7068561110733167              0.9748250682339936
H              -0.6084829361979093              -1.0962867745222193              -1.714316383009674
H              -1.087154538915417              -1.338413443835838              -2.3156530594367917
H              4.653212904942146              2.2239647267487834              1.3057812178291601
H              5.116076924141969              2.4153411102963056              0.7186129656507524
H              4.262309689214291              4.88982503087594              2.8239486970240844
H              4.375048392485346              4.201154815926601              2.9277087067636183
H              3.4647396280365816              1.7009479699261465              3.6881103344676376
H              3.0385850878454934              1.7073725769027008              3.0438364120480372
H              3.287834991501739              4.613078615315832              0.6228498615162283
H              2.8455262225364804              4.121501244154963              0.337677045583135
H              1.94366280232093              1.3296575402286472              0.6634375903158297
H              1.931175014444474              2.101228146428788              0.6365764306414731
H              -0.5530667762821796              -1.2365531833095216              -1.5515479640965666
H              -0.9188809507011121              -1.4190038876887718              -2.282667715155807
H              4.961968715211107              2.3233078379377097              1.749306240046949
H              5.1442127282751295              2.3803713237296855              1.043367074780352
H              4.37134768234945              4.78996145836302              2.7485044658277866
H              4.473146544804987              4.038126701802142              2.8778241038530714
H              3.0364666118208237              2.094477831744492              3.8283569872214063
H              3.125277242808762              1.956797674656927              3.0486646414766123
H              3.329109649410558              4.652563542554468              0.6750089987857125
H              2.9745668966256256              4.161721301004134              0.2374988218712619
H              2.2100476725308984              1.1847126131940258              0.8941094829735596
H              2.0490341225617765              1.8284122328435108              0.5028206943899558
H              -0.9247778710786426              -1.285983203335993              -1.6626892992792086
H              -1.1632667703919821              -1.700010649562927              -2.247556045638103
H              5.019830246893923              2.336946184812212              1.5157446246235886
H              5.025512040378742              2.8363637715331897              1.0555287552085726
H              4.567581453886277              4.699968728037136              2.5738724090986707
H              4.484432656272416              4.117901139483113              2.9413107306418684
H              3.1530398831529602              1.7987440325494772              3.7266472045800945
H              2.9158487415223857              2.3928484928179565              3.3353307796966694
H              3.2248497888642356              4.749676695111578              0.2655429729647508
H              2.5759668033515517              4.36390774731391              0.3024709374515373
H              2.4356264704234776              1.1773360058793945              0.6882800357569823
H              1.845225118209972              1.4770527914150164              0.8710597582075075
H              -1.0810026545256899              -1.2888428956843339              -1.92049011342071
H              -1.233923307898993              -1.8097826913423782              -2.4375300361371
H              5.142644004228408              2.3417608108770427              1.4275563985489066
H              5.317402410365556              2.758792913040507              0.9131387116910215
H              4.445677369949094              4.821241161307917              2.885503193730495
H              4.284119645117472              4.156713562867921              2.7629935372145806
H              2.779166073060893              1.5632215492529993              3.8192736380460537
H              2.7409909530667766              2.1134634053286177              3.169345808036372
H              2.9382997847563868              4.487015664343164              0.14264006471737337
H              2.5507305579179675              4.043260252358483              0.5158993731795648
H              2.4412367312782655              1.140366465569195              1.0211346594863262
H              1.836664316803962              1.5696170570795538              0.7422182326839611
H              -0.9444080320512902              -1.230372699286659              -1.8695314054746885
H              -0.9575445733223705              -1.6699705316817683              -2.3928100380523243
H              5.11654158314296              2.3939357501782395              1.4125849811682971
H              5.241925067019466              2.76233996009416              0.7230257004707201
H              4.576104030173705              4.811520518372899              2.7648353419582503
H              4.414897996002007              4.145172472142698              3.184473447679778
H              2.5966717457593256              1.7501658424283617              3.7819358954122344
H              2.955497405822306              2.4251208091900573              3.5446234292396968
H              2.93619950349657              4.604983513548456              0.48181554247433345
H              2.670519385572409              3.9970621451262              0.251951558883435
