72

H              2.226488213957416              1.4769797886194609              1.4143549609485484
H              1.639077779921551              1.5224230383916557              0.8689947841458794
H              0.4831317516369488              -1.1035008594649              -1.835783288369119
H              0.22218897032883989              -0.4257446937812481              -1.5052119700745723
H              4.612866360289217              2.3177889427735265              0.6589812279114936
H              5.122775445835857              1.8678859454245051              0.95888963569933
H              3.691752057130919              4.281308926959336              2.8046467174987724
H              4.268197424281303              4.750096349529621              2.9914063312856367
H              2.6824919016656095              2.3854278609619355              3.3985291418199584
H              3.1983855313463465              2.1487744163023197              3.9808097750283022
H              2.4829820312300983              4.569358884667405              0.6852381458984834
H              3.0493354747125743              4.0683009345610825              0.42750338985469266
H              2.24760387229686              1.6528843951174506              0.8961869418505221
H              1.5916500002372602              1.3946480895793267              0.999405495322754
H              0.46064816190024266              -0.9600401373716041              -1.8925109740801116
H              0.09901392751374838              -0.53699479582387              -1.496039214974223
H              4.4927069009907              1.9467761216251875              0.6938924967720185
H              4.765490085074253              1.9810600387547392              1.3676140039453468
H              3.4899791051715003              4.535511598411847              2.835150057294267
H              4.174032238262025              4.704682454870462              3.0737761064280393
H              3.241003751091826              2.5811020326327543              3.5280876448567464
H              2.8976447633488784              2.051927712401281              3.8011605495787992
H              2.565225334925611              4.282331393428907              0.3821884552464239
H              3.295096128975071              4.237038846198627              0.07758946541411571
H              2.216083306855098              1.5944082466557898              1.2198025646212514
H              1.8302236190660044              1.5299419183911231              0.5486941962362154
H              0.7057882732474772              -1.0990743467109054              -2.144216874922219
H              0.2358993223029287              -0.6720024651483821              -1.6810532368340374
H              4.776547982455297              2.2041988433954574              0.8510429314513461
H              4.850694322441535              2.119138462773356              1.6348486973729166
H              3.6247206802616954              4.813784675169101              2.5908360424422043
H              4.219707714617678              4.797651787483661              3.0058535027829874
H              3.055361015827433              2.316713866375002              3.4309014675326415
H              2.8987775352708067              1.814262913221724              3.8850593498377863
H              2.878530532328982              4.270808555646285              0.6859623955612767
H              3.177699935552961              4.240080959004792              0.00901151365844635
H              2.3399308302550366              1.250428962231162              0.8311085884525878
H              1.6918778404980757              1.6493262123699843              0.8110454028695226
H              0.9691722584221155              -1.0946185335343444              -1.9146191162935853
H              0.20388478322496686              -0.991801235489927              -1.6443345198828139
H              4.893753429551127              2.461471510934736              0.6150142040825624
H              4.945966763429336              2.1663644523133057              1.3670051685814084
H              3.622566643435933              4.538499942422635              2.880305662580814
H              4.304283678834685              4.660478353146266              2.883394514104939
H              2.89314496618178              2.452195798346806              3.398186724054678
H              2.733780440885459              2.290746968609627              4.175379557516449
H              3.0297807753575694              4.280652194503149              0.7813681863582688
H              2.852268196434813              3.9601467039449845              0.1011490065100605
H              2.45294063107838              1.5409375079081122              0.8564928661943957
H              1.7124391783242114              1.5420483319602165              0.7441826970467504
H              0.5927693624208293              -1.2698198094658746              -1.8431479129888322
H              -0.07738277357976478              -1.0803214344081808              -1.8549834425974496
H              4.702300578769268              2.5160301988890312              0.750583561496467
H              5.04375704780224              2.3563258022706877              1.3903324156671883
H              3.728105303059267              4.357790395412169              2.5776774064228634
H              4.249128386638921              4.66463324590715              3.020541748061803
H              2.6966897115238395              2.4620366462170225              3.74206369372512
H              2.831940553690752              2.1271754052040523              4.366382158418091
H              2.7773745447173863              4.118756657013046              0.7871500767413379
H              3.098280057381702              3.931421971921364              0.1711209299747081
H              2.5075175478606684              1.1316675307292494              1.1004230545846416
H              1.7624104066931525              1.0560622117711074              0.8564651566373931
H              0.4458603562919732              -1.1406811464560507              -2.0183036354800645
H              0.0020278697134719294              -0.7547127789952789              -1.7483202347841431
H              4.7007893582921945              2.342168946667449              0.6521868216549255
H              4.901823327320522              2.283865241185336              1.3677173062024888
H              3.8013725057155203              4.241110546617895              2.600179066069284
H              4.084345276155179              4.689683885500458              3.1568365610540745
H              2.7406118728221647              2.272911616974682              3.492563878720428
H              2.8018450904840635              2.113510487466736              4.211174645417456
H              2.5278103731971284              4.142697911233729              0.6314059201076428
H              3.0200427752817816              3.924891492611356              0.14731086896483866
