72

H              1.4035596277926863              0.7318025757268373              -0.576917076903749
H              1.2201848600304093              0.8927261991081745              0.12388394192591307
H              -1.2407122563325421              -2.540177157101907              -2.0486687427955177
H              -1.937409067651764              -2.8778984352010286              -2.2039255537687485
H              4.007600930976828              1.3316671762462247              1.540307658693362
H              4.6906422895182605              1.3449821662776213              1.199499886433049
H              3.863215853923841              3.615681184978654              3.350341358844883
H              4.298673065542557              4.091754956481652              2.9407561592509186
H              1.3875146355116619              1.9021545893609197              2.473457099420521
H              1.1497161244439649              2.528251978617725              2.0801372412812262
H              2.8108319577508736              4.006212659806375              0.011107966786383285
H              2.2434187718548917              3.558183402571741              0.21674984238377235
H              1.2637405449590458              0.4592337929498479              -0.5291747578425366
H              1.1593697088473411              1.0367944483969151              0.10801325260361959
H              -1.0767833290477165              -2.266299907231834              -2.1593526721504244
H              -1.6939134337286543              -2.8929768204284168              -2.303689956713629
H              3.821135063311547              1.3446000292141718              1.4489746623419748
H              4.543909894093822              1.3987199643254566              1.0763170195111351
H              3.7951955584382175              3.4467143970793592              3.235564479175092
H              3.9857269525271355              4.101564490685043              2.998690123038086
H              1.6221108640439157              2.1833201157077093              2.4059245725138187
H              0.7916938223435545              2.4358113641552204              2.431874898654424
H              2.8161594109482393              3.5913196377341143              -0.1470340580609502
H              2.222568771713004              3.6073892421336584              0.18109609294909015
H              0.7737936629265602              0.5838334687399162              -0.38254666622626493
H              1.2580578791731583              0.8301402269064908              0.06060878421592208
H              -0.99430539357348              -2.5035465385739504              -2.1649718526052504
H              -1.5490145110198057              -2.8987125561834985              -2.514877075053528
H              4.004971065498957              1.3850730739266042              1.768314470397325
H              4.517308984081572              1.5198486169996643              1.203937057181971
H              3.7227221332920726              3.71228983998651              3.2331309725620736
H              4.223359880218252              4.090511799381524              2.792161303268034
H              1.791506321086195              2.2207881236135774              2.3311100859668477
H              1.0606326406122193              2.3901501332722774              2.5096819133531896
H              2.946669989566818              3.2722287903708662              -0.0005718463475451473
H              2.3826026235030304              3.642878811968295              0.21191364881167007
H              0.4812850465182748              0.5748907983622344              -0.4831827662547202
H              0.9322763369809165              1.0967490817219296              -0.2073522848085841
H              -0.8668512831068498              -2.6607707225380115              -2.384641698539987
H              -1.590460776120334              -2.807910567103041              -2.4512383112185474
H              4.031153937697908              1.2768697702170724              1.5740605422359992
H              4.36684542837643              1.5901802963771314              1.0217380100762483
H              3.7013348737294347              3.727636038263545              3.3928688670263387
H              4.008777288392366              3.9723996154146586              2.7529194317225376
H              1.8074278942358695              2.2950690540703573              2.4611144135544394
H              1.119006799081064              2.449087642182633              2.1918565605296014
H              2.7779883610944753              3.722311007306244              -0.16568074705923108
H              2.5555847974243515              3.483246121301406              0.507223904104639
H              1.0533974740258287              0.6148990224417767              -0.3357385110648291
H              0.9997657108376563              1.327310658878227              -0.06910472257261123
H              -0.7721258807036093              -2.6335264701748864              -2.1166891604205422
H              -1.4808309958971217              -2.815294595869293              -2.216171867514692
H              3.7686273804994914              1.4239688595930085              1.5048686644609963
H              4.278611452388521              1.1458124193700099              1.0647152682982586
H              4.01462573673715              3.617429232425726              3.4339728034644526
H              4.454836741759934              3.8100204646200218              2.797593317836304
H              1.7581827065407045              2.252572153559193              2.322355968433416
H              1.0975167899922122              2.4240173459299856              2.3140463313617428
H              2.888320439528127              3.8958215462212387              0.32783851740795694
H              2.2243628386679433              3.7502721564354546              0.547929766229574
H              1.1791119988541876              0.8850205483852619              -0.4790040133986311
H              1.1443188634592283              1.0387702003273882              0.23346139207026861
H              -1.0613697432019167              -2.6210251304395076              -1.6701829019737713
H              -1.6032226198827386              -2.734742852680075              -2.059969266791623
H              3.9133670358003565              1.0243179301649095              1.543479312830641
H              4.481479500262641              1.515557450661788              1.3162980858672322
H              4.227778446566212              3.6950166989135296              3.5468106478232273
H              4.4718325842228674              3.7724661674579414              2.80046023266562
H              1.3244291616172965              1.9774967915005364              2.614997478256682
H              0.7411092670441459              2.376806346441594              2.4070822695996514
H              2.8003047789745685              3.953800522481386              0.38292596732511847
H              2.1723426081773183              3.5672844639446297              0.21711367169032542
