72

H              2.253904384128712              1.3537557508079734              1.0312758267750353
H              2.0487688049162394              1.9781076183383828              0.8361248131948471
H              1.0066410587920813              -1.0847936671874714              -1.7279151950730698
H              0.35154914908037976              -0.6468243779666634              -1.6753452916847453
H              4.767099893691156              2.4832642381707988              1.006847871437069
H              5.110127843577938              1.9301582255070233              1.339768685603945
H              3.8327562761872374              4.69702111264016              3.1715215592377892
H              4.547949224116341              4.7816790432856              2.992121617797104
H              2.948667525242791              1.7253672268654563              3.298891148503481
H              2.7688396141785265              2.037966320808292              3.9552169943964555
H              3.1337655949544945              4.181202678533204              0.8727046279075519
H              2.9513860319316167              4.15979521606272              0.16056167004041175
H              2.7431551650714363              1.4765842924075674              0.8265290563234309
H              1.9428095399221774              1.5416485644994495              0.8658636156348035
H              0.7841333414609563              -0.9243930565211909              -1.8266412727518222
H              0.09957910630287174              -0.7287124841446226              -1.7663438769501765
H              4.793142016129768              2.4901991745579815              0.9529564482172488
H              4.9463784835171705              2.030124833344205              1.5050848547248066
H              3.7723559402073983              4.595067561022402              3.027429504100861
H              4.435320622548526              4.838759563653061              3.035192989579003
H              3.127653017977826              2.1876336997665966              3.1080435830946938
H              2.848200965737637              2.2922426345141456              3.8091484564400218
H              2.721026413473197              3.836414957235064              0.607209359587043
H              2.816493735937057              4.29767371355639              0.09584217906491252
H              2.727581573657725              1.634465950168099              1.0819224451940224
H              2.232852997197258              1.6681010161481133              0.5911186103759016
H              0.6885502493927613              -1.0134173947833272              -2.171656346090731
H              0.2851833451146361              -0.43034522419705595              -1.883144018263776
H              4.594638223142252              2.616598948019119              0.836430075504561
H              4.883389737006089              2.013520207239869              1.292143990090455
H              3.660956561656063              4.527868963147641              2.747135599417718
H              4.296649217946072              4.8319945296442866              2.977891994839851
H              3.103914732310424              1.7925654116697483              3.0667471576014482
H              3.186747744094165              1.9147804364753693              3.788798203338555
H              2.5234210269267527              3.8258880593301683              0.6947773153066132
H              2.660325011194097              4.282953006555413              0.13108431472029491
H              2.57795092351112              1.6530103954113764              0.8983074825607726
H              1.8784795497994202              1.5707406553593217              0.7848075944837228
H              0.9679141963621298              -0.8866800006386324              -1.9569581957493147
H              0.8294979308607489              -0.2380462534138518              -1.7603629823557705
H              4.7295655635191185              2.44532124611621              1.0793271156861246
H              4.672078182974761              1.7449041757634094              1.1281167031327861
H              3.6810072360231407              4.587249838733939              3.1258376453308214
H              4.368324168917063              4.424561623094172              2.8340872760116165
H              3.1687213807135057              1.4361140551074436              3.3524005846392675
H              3.151335971258082              2.141511875101666              3.705661232709208
H              2.5279974848112654              3.909694265815742              0.7113216981054712
H              2.6417671043589515              4.2886699112523345              0.04115960489932774
H              2.3155237828213053              1.8930408352430799              1.1120968286203095
H              1.6787722779669576              1.7476833117237236              0.8021082666433864
H              0.9392325403614317              -0.9374161230338691              -1.6894797100032901
H              0.8135877325718374              -0.21427081529714012              -1.66674486930699
H              4.769576954459907              2.476873270748542              1.0445263653035497
H              4.71167720553796              1.8479081309857093              1.4812953852611375
H              3.9478258548638383              4.586189147447417              3.128688386471367
H              4.638160601421999              4.588404880625299              2.8810181200842497
H              3.6739671026596765              1.630757321280971              3.5107122724067477
H              2.9662351542591887              1.9659900470405356              3.637029515791598
H              2.830156757521163              3.9124216720064537              0.5171114280990838
H              2.979405213315589              4.559844941768457              0.1311321718580739
H              2.2309417824805062              1.3449457712074282              1.1458655528669333
H              1.7372173596758962              1.658144358953517              0.7233642047109464
H              0.7890724528857924              -0.9680609886493061              -1.7623727194832446
H              0.5600824050136074              -0.2724320441939558              -1.644623239931804
H              4.684305996218403              2.473270370999505              1.0103897157523039
H              4.659547708412252              1.9181077248695606              1.3715735561689086
H              3.8262101375910786              4.744973222547979              3.236538529440117
H              4.551069615535859              4.651806855897968              3.122553426477131
H              3.5840829296967316              1.6536005258253832              3.3914210071638315
H              2.7573913406506434              1.7577546481952677              3.6697277261371446
H              3.14022941957977              3.807169508628222              0.4539969244198014
H              2.9602779935660313              4.44646999254044              0.12218062693873837
