72

H              0.912042356551429              0.6171186451094811              -0.40217624629300003
H              1.5032685690089174              0.9668761587620464              -0.16512354327076445
H              -1.0085813875234215              -2.6330022818184866              -2.028762883333698
H              -1.6828249355195792              -2.884381273889834              -2.093411370351581
H              3.6959131931726126              1.033043123250918              1.5072439883053674
H              4.427861866752614              1.2781389243402075              1.4766139792724031
H              3.688137085689934              3.5925831041596332              3.1981997158672124
H              4.265185838604651              3.9936007279633237              2.966055017169442
H              1.5895030579374132              2.1097897650855577              2.226236859166896
H              0.8965110104952364              2.2189920288778784              2.63151818909978
H              2.712598647015915              3.672517227780165              0.06317862231644582
H              1.9960281691826174              3.723374175597384              0.37772033968362234
H              0.8064520292574427              1.040885324797368              -0.43850469610948667
H              1.3970320039178217              0.6282592537306452              -0.28378876633870376
H              -1.4056735852892461              -2.4277582033361518              -2.223598072729001
H              -1.9240939734994518              -3.1132113502784136              -2.3073459857473386
H              3.846494732665535              1.021485805003724              1.5624793744729113
H              4.504597396282504              1.2393626442377657              1.2812574345928138
H              3.607754824257297              3.986887548551773              3.2018707235751696
H              4.267859881921271              4.245887934564382              2.9513482905286668
H              1.6570958697482168              1.9122888265761266              2.560204522301271
H              1.2396463760450436              2.5389221668523505              2.4193338373559965
H              2.6087425248129352              3.728511121635418              0.042894250617813656
H              1.9080511774892228              3.638221434844208              0.12001998819128142
H              1.2821441782742402              0.4578371267453551              -0.6615985917567775
H              1.1737895758146635              1.0529128906071032              -0.3274018234179354
H              -1.2818124414648888              -2.4169455640574986              -2.4559020052690417
H              -1.9025657858596163              -2.7756632487308015              -2.2227259130402626
H              4.022873669280917              1.1191823924062365              1.3500662320247538
H              4.565856703330006              1.4027889372487652              0.8704113793645403
H              3.6378993901860524              3.865389069117377              3.2278886859660947
H              4.16531138312239              4.236140995229621              2.969429312876089
H              1.7764344659007676              2.2020526423353504              2.3880130279647314
H              1.1063954019451638              2.5958229820921623              2.434803668276819
H              2.6012850509594916              4.225637373514112              -0.08563068404202227
H              2.109672094226743              3.7514856613794834              0.20561815542432116
H              1.552959954123759              0.7674490012388536              -0.6995940843805492
H              1.2637004545541626              0.9612627623468459              -0.07477881582835533
H              -0.9378473488967324              -2.3096743935570387              -2.074951882779929
H              -1.5308973075697192              -2.616628218225664              -2.200069215530272
H              4.128547347738484              1.137125108294638              1.5302408915615273
H              4.48218238031405              1.4158677421704173              1.036485833976875
H              4.068933395112095              3.4687280422646505              3.2528408700948948
H              4.279521816896601              4.1700651820299              3.052560112367361
H              1.3978575484885312              2.3180852146475357              2.8845815041148963
H              1.2065757226869895              2.4649496307043344              2.220417297994289
H              2.895862331541115              3.8666388173688557              0.056740818472117774
H              2.120219267515601              3.6892692873810424              0.16965505088919947
H              1.120562205593841              0.6904564374071988              -0.7259306967311188
H              1.4795166418240915              0.9679073042253447              -0.11539436160529508
H              -0.8199503341832179              -2.5509243917024493              -1.9205525802972379
H              -1.5060635656232              -2.389644507882261              -2.08346297611685
H              4.194667969450399              1.1580388358026774              1.541354886625856
H              4.327916344194589              1.7325916471425287              1.1000444526686366
H              4.032406917126837              3.6693823118633584              3.3652440290045806
H              4.32627244002077              3.947977786843255              2.6864732967120193
H              1.5072518382847244              2.2655183983205287              2.758198212551234
H              1.3260280582236093              2.2920109279690455              2.074034154537591
H              3.0451185683101847              3.848083991160233              0.0001443180496560176
H              2.4053836733590326              3.536588995453126              0.25266763532053665
H              0.9723631316050231              0.6450250218586611              -0.5518003450141206
H              1.3488137642096818              1.2370790469352564              -0.324378811797983
H              -0.9999132360670732              -2.6478642127755347              -2.1046065747822027
H              -1.6687932815071689              -2.566541170335098              -2.171928672995854
H              3.64298022656023              1.4008617726587609              1.433952814200199
H              4.265796956299482              1.2483999199715043              1.1259348796647706
H              3.764364308329934              3.4616627525662005              3.2503250964807657
H              4.287465568297982              3.9754326125394477              2.9801367643967276
H              1.7037078171640636              2.0707452401618753              2.5048276791332866
H              1.2520097587688899              2.3361301806775807              2.07356380684413
H              2.922343133817445              3.610233053629335              -0.11784756011556491
H              2.4011057820515846              3.668611785348509              0.45161225620005135
