72

H              0.6711209191358554              0.894332258842942              -0.33418438282414775
H              1.3031495805123976              1.0103170359294988              -0.668231777136964
H              -1.0046752372536933              -2.5009479620714954              -2.13179311465121
H              -1.6444774489749852              -2.69873057049668              -2.196765363126414
H              3.4966742071526684              1.1291586252219672              1.4619884797676925
H              4.113094029582046              1.3959952269290725              1.0963360466868415
H              3.676250097001753              3.829918107435569              3.143329839500653
H              4.275068374910375              4.028365825796055              2.838696082903535
H              1.987834596001331              2.317057860040712              2.5207672057059463
H              1.1774947319972617              2.137813632455781              2.5343989409076046
H              2.7685635047567616              3.488428637517614              0.077533852569907
H              2.1017582166485202              3.768556994654769              0.2675958892602595
H              0.7586187752426771              0.9048558095694442              -0.42215715509099694
H              1.5002195435338892              0.8365662642861914              -0.5473381540928108
H              -1.1721098849551506              -2.5707273288828505              -2.2697432641837554
H              -1.9704565407496828              -2.979425784705428              -2.167128253064697
H              3.8624229697866403              0.9662369039138297              1.5163724751305778
H              4.571705040536984              1.3156057358715676              1.2941009961073862
H              3.6639845207753123              3.903750168794328              3.178919075007
H              4.373184566083377              4.09711556401482              3.024198735356134
H              1.6225172510728507              1.8777357843548557              2.3323446901603133
H              1.1763566603493096              2.516904601305036              2.458755655709683
H              2.6201290777100463              4.09659106426936              0.08632079863582152
H              2.0950208140584365              3.811782561527259              0.4509800503875576
H              1.4112155395425583              0.7901752876737963              -0.8467050787046818
H              1.3340459153741022              1.0531766368925501              -0.21564112633940258
H              -1.1982728524217616              -2.3122136212805287              -2.241038841041017
H              -1.7718619175460204              -2.7916957530320117              -1.9648495238149324
H              4.0146126023408675              0.805436743495594              1.353752682230817
H              4.463530344636377              1.323276423012247              1.059974033984845
H              3.859269521579855              3.6867808032418488              3.258550393700544
H              4.2169674871289855              4.1980879761598695              3.0411875214891664
H              1.4334755644531718              2.0930432321695354              2.7832029739164166
H              1.1555979843470288              2.5699215847277705              2.2279672649345907
H              2.3779852226879195              4.271266197460616              0.14968990412822805
H              1.9944100774494877              3.6557874425620587              0.1511873464786547
H              1.7456746432485366              0.7722942236654581              -0.7224687183969373
H              1.495412656993248              0.9557404872058624              -0.0941915568070551
H              -1.170649928291235              -2.289573584868598              -1.937905255186712
H              -1.7962816384838174              -2.4680597336057715              -2.021843578366192
H              3.8910643026450096              1.218004195973871              1.41705756534774
H              4.3849304803398095              1.3592881788653668              0.9380631187450936
H              3.994827315925816              3.7798435285432292              3.1809668054892963
H              4.570769742308204              4.16063037415947              2.929120293711209
H              1.6383807953915395              2.12446515036237              2.815636522933801
H              1.3708909590739877              2.3958877613599103              2.1872040249010833
H              2.804032841615702              3.9090368895254706              0.28662868333748287
H              2.114931050810959              3.8765105962260797              -0.0676852856276724
H              1.1820150283955897              0.6459752039754613              -0.7858494551354254
H              1.4532974888678158              0.8618731701704477              -0.10734451380675819
H              -1.0650364830106922              -2.4885020387566095              -2.0386516600467988
H              -1.8200643027121888              -2.4136678135701604              -2.164727905460116
H              4.1493534946918675              1.0281839234327979              1.3395490588101622
H              4.560950770403205              1.6130750709325343              1.2723239593418885
H              3.7507959514808644              3.495926921165952              3.2420430715075215
H              4.100432802163572              4.175791213510335              3.0407066296426803
H              1.2444526377014387              2.0887059976712345              2.8423573774096256
H              1.2138188618313546              2.3287399550340724              2.157205654776201
H              2.869106970559907              3.81699200339846              -0.3822169487488287
H              2.366805923600285              3.611898091475571              0.165158827186212
H              0.9827838002569944              0.5849760772731373              -0.534592724805408
H              1.64937981961284              0.8376193658003938              -0.45690093941836046
H              -0.8698822863764336              -2.5469813757334503              -2.3243064338883426
H              -1.5535451907489015              -2.642665856400393              -2.2200308549256045
H              3.8745273216123786              1.2330816838648144              1.6108652251267197
H              4.442677794172363              1.247408751224649              1.112475297919204
H              3.653806756937464              3.5470240575939758              2.994345588640179
H              4.008877226600943              4.169468692651645              3.006208801262268
H              1.8180347705719848              2.284076112678033              2.6152697576575634
H              1.4684833592762447              2.3945907506372905              2.0631939922263314
H              2.7828130491524807              3.5766615483775563              -0.22297987655441595
H              2.2822919541596143              3.7006361659601708              0.35225557740706215
