72

H              2.3292700180305355              1.3349277686163563              0.5389135353299752
H              1.8217055771925872              1.7843528344793005              0.8308542384870875
H              -1.2285800315292834              -1.36156727326637              -1.6481862937505554
H              -1.3306021558982144              -1.6309035967418954              -2.237999294374085
H              5.152796836668643              2.5065927790526183              1.4104412114924372
H              5.010317337213553              2.4017945494061466              0.6603177934375355
H              4.773985261373369              4.561796218049931              2.9560264456280985
H              4.470957246269112              3.877395889755465              2.852170652732121
H              3.1988886805995964              1.922147166675481              3.636875946670067
H              2.6694570462268463              2.3053131729092784              3.386207923330758
H              3.2376738420266857              4.791491248156605              0.6528254687536552
H              2.775651407596089              4.463444273925076              0.1479110062862568
H              2.318285923047744              1.2476685967382142              0.6796724691106495
H              1.7384714229868328              1.6603935628675703              0.6586615019122474
H              -1.6137883718333772              -1.2016879149223592              -1.7598445711861506
H              -1.3604452318313605              -1.6242160188356913              -2.425734548984615
H              5.369041672454228              2.427640319287699              1.3507735888521875
H              5.069125106774668              2.5362845389422066              0.6331259374009671
H              4.480300079514094              4.842737755833004              2.7600914274679056
H              4.551815252283469              4.165805255501581              2.9565341184207674
H              2.909938225639393              1.8912078886355113              3.884840145973044
H              2.852272864852379              2.527952323184386              3.7257391248106617
H              2.9015265649721482              4.571940288796619              0.7483782904755958
H              2.6857317363966775              4.334699652138425              0.06492463028000313
H              2.621245401596551              1.2849481905659825              0.7686633630266838
H              1.8797591715247997              1.2464780525939325              0.6572370451834576
H              -1.4245499359112876              -1.069708809148642              -2.1326280970029035
H              -1.2020123860698724              -1.7205415081606732              -2.613842377176847
H              5.093134108028929              2.3496625307138053              1.1808915220127427
H              5.237651150521089              2.6926816836691265              0.5090271649046678
H              4.297691810047736              4.976647861906264              2.9289170577593717
H              4.442553409562414              4.204953307233479              2.8905275827886885
H              3.264711979904243              1.484108406679125              3.5626352859457566
H              3.0250791304504783              2.278685177398754              3.6542212807280747
H              3.008569582066979              4.369784415189103              0.5719102908949929
H              2.2824838889492036              4.224681871192128              0.37278013161725587
H              2.379086424614853              1.2552740963433755              0.7243674299623627
H              1.8034932691288763              1.739843563977469              0.8947090070351681
H              -1.0046489508342333              -1.2023503475488697              -1.94351579073741
H              -0.8272332073845065              -1.4812563023938612              -2.637824300875785
H              4.834108202718659              2.4777604877419757              1.0927358449691753
H              5.217563336589638              2.2922070583457455              0.499489306672346
H              4.146975376574659              4.804616192577067              3.104361034269066
H              4.53205510236984              4.203026760653709              3.0049260239682845
H              3.234119326250009              1.675877132018251              3.680253239148138
H              3.2968833016871              1.9179192878886693              3.022342991596883
H              3.1557482492816646              4.340380539137325              0.9439791796489325
H              2.5630228830594914              4.162103354796251              0.39068760578362843
H              2.2020976995661417              1.471034756081464              0.8461825525363549
H              1.9191463244611744              2.054095252105321              0.6187760337726679
H              -1.034153953483813              -1.4346683024869513              -1.6789570318477371
H              -0.9774770210675199              -1.3312821757147204              -2.4344810143980635
H              4.784644491209726              2.09539865365228              1.2081433478177777
H              4.947659495751023              2.345943639703958              0.5107838030035576
H              4.377356875829686              4.568287662859465              2.789073060138992
H              4.623899648959644              4.127069481721465              3.3202595253443827
H              3.515855070166178              1.5446375045966576              3.7334950291473645
H              3.275283576188963              2.176333115386076              3.254214399985306
H              3.1650321709010063              4.629424528292998              0.9217887063192334
H              3.0037187767727715              4.430598687673348              0.24865193280183095
H              2.167733353633198              1.7816838491817055              0.274268446068076
H              1.9082517948868196              1.793414919328373              0.9581038636143957
H              -1.170943590263052              -1.3703504497217467              -1.69805348347517
H              -1.4484699124598412              -1.3395207230883044              -2.3518186286955363
H              4.894211322666441              2.025270199664272              1.4644659023878475
H              5.064819965638244              2.4895068145767416              0.8568797275565289
H              4.540241868701838              4.698357547305959              2.7618231544324385
H              4.631654411538223              3.9160333382804264              2.857102054473073
H              3.5536735560588033              1.6080950564029795              3.634169881478126
H              3.020980151732498              1.8091869104054568              3.202909096213245
H              3.2345274668718034              4.560549076604958              0.8341770933602017
H              2.7973812729036407              4.304307113110483              0.3246195855348898
