72

H              2.401048365208796              1.4623355879748952              0.7015208225013166
H              1.7151958293685874              1.7749666773976918              0.5901014072672934
H              0.8425699610965062              -0.864821222016943              -2.1928531966405416
H              0.7877719609600565              -0.12434579347331985              -2.118487448431893
H              5.418834922093959              2.6663697353281974              1.4758600339763068
H              5.024249540707139              2.0393634690223483              1.3371737009820277
H              3.976206101563166              4.922532360972236              3.053431975706256
H              4.316039689210934              4.344624543272564              2.730082500722582
H              3.0669926018313545              1.092890907005561              3.618760602743542
H              3.343187547963462              1.6576695210217622              3.2620523746332273
H              3.0942681720523897              3.968903082827429              0.8003494810363264
H              2.814428080512095              4.468811398207274              0.2891704565702319
H              2.3180374998462656              1.3525503073078218              1.0688605740713408
H              1.6372363304463196              1.5451967137287683              0.8604872940773908
H              0.7578213680476089              -0.6995023692636235              -1.672874966897864
H              0.7515287120319385              -0.002577734673487323              -2.0337882584343188
H              5.5016982293387064              2.6197286356752896              1.4230063557056762
H              5.0769955158392035              2.1565529840623228              1.2208897703338344
H              4.266334446235133              4.6392835204180995              3.2419669920383978
H              4.515352813953023              4.197978308069758              2.623551028939527
H              3.3194004730585953              1.3331137676285316              3.629287011016605
H              3.258614635575151              1.8732279541448231              3.0932563345206225
H              3.1069372006177445              3.8486998093143105              0.4822564577409042
H              2.7983891835962558              4.519968983944187              0.7245902107742606
H              2.0126938507260475              1.4452150863278128              1.1099070974502832
H              1.8979652656876218              2.141645884360961              0.8495858777109409
H              0.4016427266292533              -0.6977951632192032              -1.5214829916119976
H              0.4707865674097142              -0.11836510106695727              -1.8652737996214452
H              5.149513967931327              2.6057191086327425              1.0904600961643267
H              5.171326426864061              1.9042493137145688              0.974054383489855
H              3.9576884310111957              4.430568490274179              3.24325514403753
H              4.5299862193764175              4.248626911247394              2.7630237901297363
H              3.5538393871538374              1.3218875747369614              3.520834305646278
H              3.0331793656922614              1.7794030005792891              3.3255902039987917
H              3.1012135020998794              3.8982773273916558              0.5869562374353066
H              2.8184493298815414              4.5951984535229515              0.5348564122939707
H              2.196620049138217              1.2166093226822239              0.8726086444098934
H              1.7934607802947373              1.8567733928603147              0.9587368632700229
H              0.5439151293161528              -0.7517096211436649              -1.6492571878231514
H              0.24422461637946882              -0.10340611666718307              -1.9151039821395002
H              5.101292423707062              2.3955267245777927              1.4534658415559423
H              5.067593531542337              1.7052405096165701              1.3349416873379905
H              3.8820406086157906              4.693456106104442              3.379370738798139
H              4.27027305019411              4.301237981948054              2.848838321590961
H              3.1780909283976726              1.153607846886503              3.304001410657023
H              3.081032038956284              1.8862763200502648              3.396559853943043
H              2.9731808596521008              4.158179319785453              0.682478512813307
H              2.7622561159014265              4.54243096708171              0.1294627940937493
H              2.395017810192421              1.5566586385056445              0.954368077869443
H              1.6731641156121764              1.7208666589781536              0.9213083242397749
H              0.8450205741208222              -0.6101550340094952              -1.8377177604894652
H              0.2307449444117061              -0.15213919852221616              -1.8458698791950903
H              5.433107316432083              2.4328408843587175              1.1001599173822083
H              5.227058987069364              1.8955261484569454              1.489979592738403
H              3.8395445059980826              4.831346520304626              3.0812271874445987
H              4.451411586986639              4.696563809271723              2.5959250368668574
H              3.487842373531885              1.5560546677517375              2.9674534009647497
H              2.9762909942406717              1.8647750040099669              3.3888383486146574
H              2.8789891118189384              4.237197934167896              0.6791011455502365
H              2.8969959084263075              4.858276688354159              0.3291178915762818
H              2.219653514986211              1.6467183909293184              0.826358516058891
H              1.6152870274782254              1.5251913193496447              0.4685797338443166
H              0.6516884503165981              -0.661424617497024              -2.1315242331926965
H              0.4776276842743458              -0.015291367076520021              -1.9354626413644451
H              5.471501864656803              2.4991338364730122              1.2101058123297828
H              4.998219456881604              1.9481261480181244              1.006820468236651
H              3.7523241000735457              5.111390689294419              3.052177324701651
H              4.154068639048167              4.510354897060796              2.8073502232667393
H              3.4400115218442435              1.3023532695027091              3.067255907772537
H              3.2838077901159326              1.9043023175577745              3.413179361855731
H              2.8500931061651964              4.011448214325811              0.49968582393159117
H              2.7877766470215315              4.732876976564089              0.4127304933290999
