72

H              0.6792988231565443              0.8751915836082216              -0.3279320715989182
H              1.3178124820375217              1.0138574755596017              -0.6323566206170596
H              -0.9811459926919265              -2.503948392776406              -2.1121498722105883
H              -1.6605110863399373              -2.7188595900317316              -2.1887919060320704
H              3.502676031347577              1.1234264504011373              1.4611837310796862
H              4.115978099681595              1.3858190500250014              1.1325401549191936
H              3.6788624989742273              3.811194075351633              3.1465334093391313
H              4.281115474362393              4.021269681989468              2.8450327722978557
H              1.948017767522096              2.307891380453359              2.4965183524346535
H              1.1662259552334866              2.132377141058568              2.5555595260409403
H              2.766933267823672              3.4887097511992855              0.08517393594086024
H              2.0860602581247516              3.767884451895829              0.2736093114816185
H              0.7523108645709484              0.9236776016943159              -0.41392729221775815
H              1.4819344715081908              0.811849437533375              -0.5286206052027735
H              -1.1998793619360235              -2.5684574051606153              -2.270014255339667
H              -1.9783883569339284              -2.9992555265497365              -2.180925468188783
H              3.8597175619810122              0.957885867818979              1.522715071005556
H              4.584475987767354              1.3168785385077895              1.3062444748385313
H              3.6716047261421387              3.9261271808297074              3.1794018310655576
H              4.351291574104624              4.106262025816406              3.0233527626914927
H              1.6073944659004402              1.8813029352173305              2.3411392507793884
H              1.1930124792406342              2.50845067285374              2.460965312456342
H              2.619091809607768              4.070067234522121              0.08181318060152351
H              2.079046906866368              3.7985739187870644              0.4270598096377373
H              1.419392785489004              0.7548301653736961              -0.8471940586973288
H              1.3165525760435364              1.0625925873306243              -0.23015182519612984
H              -1.2144027670835809              -2.3218124042679187              -2.2699074286879615
H              -1.7766539055086823              -2.7892602209189876              -1.9831262621932686
H              4.023024229511193              0.8276232968971952              1.3440358021376306
H              4.472941787616729              1.3213784289794204              1.0377547141819905
H              3.8347928150416846              3.6982905487242386              3.257395846214196
H              4.2057337671726              4.205964330514922              3.038644587058967
H              1.4694015391184476              2.1012322877487715              2.7555219147596146
H              1.1414840365253887              2.586768596660935              2.2359955187511185
H              2.3803366759551428              4.2824360619105795              0.12639092283723694
H              2.001625722242654              3.6635939293274196              0.15608562989325753
H              1.760309142608307              0.7764729989046866              -0.7241468647203546
H              1.482565503100711              0.9520037568107269              -0.09118974599412036
H              -1.1403713436203282              -2.2765848007864893              -1.9340831592036687
H              -1.7802428824243783              -2.480493968294828              -2.037125524513166
H              3.896655436382841              1.2161176917549812              1.4375953857696233
H              4.394290158577236              1.3625763964098971              0.9296866448776291
H              4.013088873044979              3.7545214258049455              3.1855400238194833
H              4.562572762865883              4.162600822384506              2.939216404150134
H              1.6256563188878945              2.1385165950376734              2.8383686849137
H              1.3554333077443543              2.4040369351094766              2.1836476021018956
H              2.815180469773074              3.898620227173908              0.2824590553730999
H              2.112035442393087              3.869618784223328              -0.058967664597129016
H              1.170162906915881              0.6485005453788404              -0.7919731823106558
H              1.4598643052872333              0.8617698640979378              -0.09752040063151375
H              -1.0523924870692658              -2.49865923646464              -2.0246662547606737
H              -1.7925526918997154              -2.4046172509577146              -2.1577248463288017
H              4.174213966868222              1.0395263002744892              1.3545028972612334
H              4.5455060482602105              1.6315134847452173              1.2684341088162427
H              3.773422132974063              3.50919086326734              3.2617555542034986
H              4.115416971551692              4.156944089554135              3.0060037220167364
H              1.2495104867799645              2.0981197629247768              2.8425382718948926
H              1.2167008807658009              2.3221151135249527              2.1470669093465484
H              2.8847524528460626              3.820004422677448              -0.35920218851382457
H              2.384971969808823              3.601302265334101              0.16570640679894627
H              0.9746054629036398              0.5783487482128973              -0.5398396541485644
H              1.6444494145031519              0.8755597038246997              -0.45602431939037125
H              -0.8746869805092734              -2.560230864400761              -2.318879868379916
H              -1.5586966761964403              -2.6346618799395656              -2.217419641580483
H              3.84504696500158              1.259605627686793              1.6078659668245876
H              4.435619720371923              1.233393770042157              1.0998453442040899
H              3.6533423604877657              3.531932991025407              3.00910242694824
H              4.023731020283015              4.153951958549866              3.0074865626967795
H              1.8342717340976196              2.263858200604584              2.6161984978032815
H              1.4489226681001672              2.4043748340026805              2.036419169751646
H              2.7906209771214963              3.576288541865363              -0.2204868163539036
H              2.29866235816367              3.6955441493830814              0.36571156251902115
