72

H              1.13217571318311              0.7760771268816942              -0.4085989846563154
H              1.0120627378513318              1.0378846607094152              0.24799519258367198
H              -1.7607853608407062              -1.4657939405929457              -2.4644836630691733
H              -1.7037547100578143              -1.564551320767593              -1.7636730510576903
H              3.9548913963236565              1.4391720869199527              1.031514163392472
H              4.4150997286036135              1.9427035447508085              0.6526215161211946
H              3.747390467929866              4.766254236008689              2.6578301183162436
H              3.909680537656126              3.945132525179661              2.625496003291478
H              1.2412179134890693              2.3476714409088597              2.6118913106400665
H              1.6929347567452306              1.8471864491131824              2.887375888322932
H              2.2179633927836786              3.9764402322427848              0.7040727149604061
H              1.5364869844508333              4.258654108975807              0.5167835627081517
H              0.9114749959782666              0.9617336849225941              -0.3734057601682444
H              1.033955959593555              0.7572140227092178              0.2752188306338037
H              -1.8555440099899723              -1.2903591617500585              -2.5666589371390396
H              -1.8110841428887208              -1.6546651742517475              -1.9252799500079745
H              3.465103624491177              1.5287788404563942              0.8612262588471191
H              3.9639270570295984              1.8635871372009336              1.2206647173353733
H              3.9143226949122676              4.644661850790559              2.9172444356155722
H              3.609616771931862              3.993482312340449              2.612118322187028
H              1.164608877425133              2.412984001039767              2.6487316091123088
H              1.7484504329776838              1.99241145509745              2.4383811268876743
H              1.9545321119743608              3.87239329927561              0.5617050074218569
H              1.3890721667081365              4.128451975795097              0.9410413508348329
H              1.0115019656989646              0.839496539200897              -0.5070430573770894
H              1.129297761415039              0.9240606429788061              0.19643029360470537
H              -1.716939750460808              -1.132071448426637              -2.4501752909435757
H              -1.5244793781115333              -1.641829889238686              -1.9051754985268528
H              3.808677646298564              1.4748920341175678              1.1043303777069489
H              4.180605063669025              2.1767573801603577              1.1801913552277188
H              4.302156279939662              4.769018093447051              2.6232429002777433
H              3.7740432033393394              4.192380452558465              2.637691612993248
H              1.258104604127217              2.282175052888565              2.7454713440605882
H              1.571185374808109              1.932093048329008              2.2874495134401154
H              1.924151151307585              3.851091661909511              0.5549543434382425
H              1.4877310926618414              4.210270896958515              1.0873237106270472
H              0.8998175453673629              0.6972535440764355              -0.5807565379334703
H              1.1177680600923705              1.1493186519984677              0.04298642224859648
H              -1.6851561946315488              -0.9740650283082687              -2.4530014968920986
H              -1.5223894984338084              -1.3971116812630613              -1.8931227144260594
H              4.0286613865616765              1.53554983206964              0.6296735056360283
H              4.113974405065082              2.2246595399957494              0.9252034310671596
H              4.309554012756212              4.539245133486583              2.70203388895011
H              3.7017547589798863              4.156928274377659              2.8662743683083893
H              1.4247238744092428              2.4632073365569824              2.795277907905741
H              1.5897476454452284              1.8463872624431956              2.3797225935765263
H              1.9953888349260627              3.8100743311861884              0.21984145853040396
H              1.7013204115627931              4.0839199495973295              0.872639217424367
H              0.8572235264638448              0.9702530432725879              -0.569348518289198
H              1.025770079284192              1.1870299864833105              0.19248997060708417
H              -1.3766658154002251              -1.254544615456553              -2.441920381827503
H              -1.2929779853889931              -1.2820254852566515              -1.6110198118561
H              3.8923868223939597              1.6360689413151266              0.563451750066002
H              4.361436881041116              2.084000341425967              1.0010318823273119
H              4.352748607413496              4.25572547321938              2.9786776720750554
H              3.7675598930477703              3.850725463394921              2.763095817365866
H              1.1549868933597747              2.3738000526961858              2.5413747570892475
H              1.8616558388423052              2.0281068827455218              2.53990514736446
H              2.0864695825530943              4.063274676263633              0.22920605187036633
H              1.744707266898183              4.049424964459818              0.8519191550308531
H              1.196596056648644              0.7511424140954059              -0.30371950951026966
H              1.085738030831082              1.4756734696743232              -0.17763494322234138
H              -1.3277393736945005              -1.2572139209804685              -2.3308887309172115
H              -1.346705856336226              -1.4758690164426025              -1.457116288399396
H              3.891295347432793              1.4751197783051384              0.8083214008548861
H              4.280675657275142              2.0652616925456453              1.1781652959719644
H              4.2660007856336435              4.2754468511097405              2.6850711331094574
H              3.705883334946536              3.897133258080514              2.9717170162130424
H              1.1747582713139388              2.4897858092792475              2.7922981207281112
H              1.611859091952572              1.836167580649793              2.830286379932814
H              2.2472798866853476              3.8551555150058934              0.39055401852837257
H              1.556085632807176              3.7226274642918673              0.6328819006449573
