72

H              0.7214013059560908              0.6734726478662953              -0.515336585358247
H              1.365191358409608              1.0177235544060348              -0.41822361769778477
H              -1.555319085752865              -1.5169081002456037              -2.4721184876136832
H              -1.6938597779867042              -1.6816065206996975              -1.8033745570661985
H              4.190916811228074              1.2781758720037426              0.6501224903425676
H              4.102084676773365              1.8517047101741002              1.1486309193494728
H              4.080329862351346              4.238308716960051              2.4935986762734816
H              3.7286147824683553              4.223684222362936              3.1808353254644137
H              1.4317896624233244              2.062761873990706              2.958348089832876
H              1.3018225895014492              2.1083630158392146              2.284676364797576
H              2.2537829663086755              4.180424967542889              0.10862037260352114
H              1.833187295881505              4.041648345511453              0.6991113990994487
H              0.8816779724942725              0.9725676100544572              -0.0887209483667414
H              1.4298733490044022              0.9517110154591536              -0.5148255268868935
H              -1.237649088447365              -1.5761845233921343              -2.3340060851768256
H              -1.4088801829370654              -1.530796865356855              -1.650447756611218
H              3.703192668410366              1.3736883650957865              0.89563289706502
H              4.165936744517185              1.9038004515593536              0.8097433692387896
H              4.329770701154899              4.252043982769417              2.546310235955691
H              3.810704751139769              3.8566335720188576              2.9766723734640914
H              1.3672274770444022              2.2623471336788716              2.75971624914349
H              2.010786731449612              2.0562443750758175              2.4597361160204363
H              2.2593427358961704              3.985372470615975              0.1151923229265091
H              1.9956028453235723              4.0896291054406655              0.7562655888617542
H              1.0580218440470992              0.8170574873773638              -0.6207499481245603
H              1.4304876216010727              1.3523666778757786              -0.3651414261524201
H              -1.2544929664552746              -1.652814393079695              -2.198645681638979
H              -1.6218969394789557              -1.7327113354261037              -1.5328108641656781
H              3.769002909795426              1.3335983245513523              0.7440178287209281
H              4.071888099960177              1.9319433051272368              1.16011465525148
H              3.9788039342329125              4.102908480853643              2.404586133456894
H              3.8760099369369985              3.9640695510745694              3.1053496482222482
H              1.293541187338076              2.3922312664385506              2.7074665036159646
H              1.7231081826041186              1.8163157195933597              2.830383230085221
H              2.5735364577576627              4.052089113934624              0.47986068402113624
H              1.8789275125755667              3.8481960087073688              0.3759129350182674
H              1.0884016734281683              0.6352081092522198              -0.7183778065310252
H              1.5048532743302703              0.9839572482771847              -0.20306169061873686
H              -1.6741172651062755              -1.8670793140931838              -2.552341017835645
H              -1.7700335957253535              -1.9904610815182775              -1.83147262959148
H              3.7307388385877394              1.2665519903972255              1.0840825994357863
H              4.433093063158731              1.577652731342265              1.0456439250147267
H              3.7288256503573556              4.5111235605912645              2.4844277308958227
H              3.6673850926724225              3.929820862713846              2.9577161205065194
H              1.1917333049875365              2.0870449532928586              2.638509779668916
H              1.9297754612362394              2.1627659600233664              2.5895419620227256
H              2.47251617689485              4.086139466133245              0.5543175153280967
H              1.7085913665547032              4.127824464839982              0.5690867746380077
H              0.7681075531704676              0.8693209632658816              -0.4130855327406627
H              1.4068135127300598              1.0479634383603076              -0.29734162855353713
H              -1.6895591720157235              -1.5629031404764693              -2.5225008505517073
H              -1.7491922057629827              -1.9951178671968286              -1.7944776188055127
H              3.2995932697200057              1.194705000283013              1.039758601699486
H              3.899999314737793              1.6859744535957295              0.931118149697031
H              3.885782550284973              4.6283045157288525              2.5152268327665483
H              3.7237039432799826              3.9828369903035075              2.8460837585953414
H              1.5403005579866555              2.04058721018587              2.9555255562104157
H              1.6462623349851186              2.2377632561745275              2.2509568091450034
H              2.066090756901784              3.9942438940135054              0.4539929446089477
H              1.546542257635857              4.186328629299899              0.9081424559973058
H              1.2015644193301884              1.072225487036729              -0.6956823809618123
H              1.34694784033431              0.6067568505009808              -0.18992499175073416
H              -1.6587719760457134              -1.376346292451581              -2.350257636113634
H              -1.9237896545804782              -2.078475518592869              -1.8736174042685172
H              3.645843457109368              1.2391957449084943              1.0091936145748523
H              4.008915375359248              1.9331126710847117              1.1483864448421672
H              4.121845297839958              4.614016484541693              2.3877046645599194
H              3.974502072497861              4.1822003287752985              2.984531921308469
H              1.4172103234310518              2.1399260035265746              2.8181118961298477
H              1.8154680053428904              2.0444217221277037              2.2388075589157332
H              2.309293937134073              4.07803645517687              0.6592063909417804
H              1.6259463244936343              4.305750895969211              0.7777964264413321
