72

H              1.491743180925337              1.6939469601342723              -0.11526790005031604
H              1.320541651176947              1.1979288755309698              0.34295594749552377
H              -1.2834641694343745              -0.2880608089775791              -2.2799012238011898
H              -0.5626608842690385              -0.4049296980767228              -2.5156041016956467
H              4.203994460574783              1.845044200181609              0.7569380186995612
H              4.662785613487898              2.491979295919666              0.8330204536869316
H              3.7549799793070076              3.957294515938588              2.8244637554589485
H              3.9795161021229313              4.675172331055138              2.847861482355455
H              1.7814829907967893              1.9061561787425032              2.3335302462110525
H              2.430270627586384              1.9720781894694026              2.6737749859807134
H              2.084273221247231              4.026665225217228              0.2869182027214076
H              1.9015291935325602              4.087483911955208              0.9604567521373205
H              1.5297793210929662              1.3031810368348271              -0.11141727694306225
H              1.6539229574549859              1.227743633744868              0.6271681517018529
H              -1.179861645860453              -0.09739783672362456              -2.0338763648904963
H              -0.4768985567472189              -0.31296173177400316              -2.101395408577856
H              4.513598840562155              1.7480625751483319              0.36240711951895643
H              4.446965908903798              2.4573756120177612              0.6295784595123652
H              4.013092544730737              3.8472240464699334              2.9035262092554133
H              3.969229586687634              4.564714608659644              2.8105213291234707
H              2.1128680171311753              1.897083387812167              2.4477693454374663
H              2.213442055377283              1.9264615434048455              3.1882939369219394
H              2.0704726083554053              3.7225217102983215              0.27918427750509067
H              1.8789087922742034              4.072140138452995              0.9290779870844085
H              1.4726538424085251              1.7001049274270603              0.22580237761607042
H              1.4339029479970724              1.0526559356025498              0.471858819174386
H              -1.436027088292681              -0.24434965994738717              -2.234095741745512
H              -0.8799143911231415              -0.4953719296303701              -1.7705870052282764
H              4.312463453803872              1.6188716092805289              0.42755903761031205
H              4.796480561346445              2.256923597911283              0.42030327509507515
H              3.651765997090107              3.956766761446123              3.133913897090198
H              4.1196292817692095              4.368663911347384              2.715749002647356
H              2.3264293392800477              1.8538529845559606              2.6084819690958754
H              1.9501768264251638              1.8573883519956726              3.187604852521413
H              2.2877603482667253              4.1319309732898315              0.38010469024885346
H              1.6596406202247749              4.287252790454829              0.7385754730237755
H              1.7747305922601129              1.5051110577247648              0.06823273531892524
H              1.1599922151033324              1.174689110017121              0.3801741736040031
H              -1.6385090804188214              -0.4434471629234312              -2.3566793883958925
H              -0.9040717245650811              -0.45722570016235675              -1.8881997993229043
H              3.9541914258845585              1.7081139031788206              0.8211012873336456
H              4.542497168991805              2.0974241489797154              0.9055678795563802
H              3.3818437446139265              3.940139891423751              3.0888285883708795
H              3.8667393669570758              4.418958791835043              2.7474372007522203
H              1.7610008570144697              1.9158048691506357              2.666799213879535
H              2.142338106750824              1.7595183129488579              3.248389122782933
H              2.1246590594381907              4.054577028890768              0.33269146930173726
H              1.6952492647619666              3.886444468810494              0.8965358504033942
H              1.514366092134887              1.674682172313168              -0.1135489007977086
H              1.2696190114653743              1.207208080556449              0.41478905729843246
H              -1.5879046670287549              -0.4733134475330017              -2.3616888936084015
H              -0.9712368322669902              -0.31663050730278425              -2.218576995150904
H              4.369265848795921              1.710350648572357              1.0605421983729566
H              4.415226462839925              2.345407503811176              0.528333062245602
H              3.2945203894887247              4.494158300466907              2.6381875584560635
H              4.104432179420209              4.5663387313412125              2.4615483300772345
H              1.8738029947309016              1.5729996681081542              2.6630761403902983
H              2.2610948910075526              1.936120441620944              3.186042725748621
H              2.1621909310368532              3.874379906875171              0.5371074832300269
H              1.75014142570325              4.449002066110322              0.9164578465909531
H              1.6680212343538685              1.6589169967691708              0.03038731251798188
H              1.0530356655551127              1.2109038502829648              0.0643813446300174
H              -1.6172433118032243              -0.21447325418209595              -2.482531241462085
H              -0.9481125649318823              -0.3523979395466665              -2.3790426461726346
H              3.991352026143228              1.7808112657860355              0.606142993467204
H              4.300570711244459              2.5004632518195664              0.6981396307948909
H              3.4175507535653895              4.345471825560937              3.0283661578330414
H              3.8207726161503506              4.625293488297157              2.4935292887428067
H              2.0158266249778594              2.15263963298672              2.22121751762885
H              2.391100264815608              1.8500287801190864              2.8978686488447423
H              2.231439316279418              3.9254824185322295              0.39079235105368154
H              1.6947029428262785              4.243532598496137              0.7939323872813109
