72

H              0.7255448029748771              0.9527674383173169              -0.4937079724238734
H              1.4610225808960935              0.9491294536933292              -0.4448522159618332
H              -1.3847535041404817              -2.125193697902236              -2.4517517413379744
H              -1.7845339341900883              -2.3832527497368994              -1.858776005854406
H              3.5755725131404703              1.0540282371085212              1.2035357049411786
H              4.216348129318872              1.346005047579822              1.337455967344042
H              3.6425022009493953              4.04571768946739              2.4843674375989697
H              3.716384254047999              3.992397037839069              3.2250380409029704
H              1.3340422155731564              1.985459744918622              2.653156179568837
H              1.9446474341888544              2.273044075776388              2.4217596552140908
H              2.538695505139177              4.033910262721474              0.2627394279989624
H              1.8319339462190063              3.9113329647640103              0.5238624902769362
H              0.8128826045860588              0.8751348991149949              -0.6355907170452914
H              1.1598770418235471              1.2796713287350783              -0.15023972483624579
H              -1.5701492444792498              -1.9207452462774912              -2.3543274595306167
H              -1.7354930799444996              -2.384161559014213              -1.8738579282454044
H              3.4994895759268476              1.0343595545245712              1.2588552899401726
H              4.044096922997271              1.411313160256416              0.9568100107940519
H              3.62906761412917              4.425521973404729              2.4338216100412775
H              4.104756358869348              4.172879886982971              2.9417605086229814
H              1.8094445420689584              1.9900501256788101              2.9546475510816155
H              1.694974782179235              2.1845088051280674              2.21659031556207
H              2.3529332663269864              4.137950241839213              0.5389778307255693
H              1.63837165444195              4.16135822647685              0.4730362986160871
H              0.8558319900210521              1.2359022053966202              -0.47360939378255323
H              1.3427002350685138              0.6415267052985066              -0.48865722244600096
H              -1.6382750135262278              -1.7944241048566063              -2.3307308396822903
H              -2.0821357767899853              -2.24556137688042              -1.9708954689620337
H              3.608325430978333              0.9891764760644984              1.0236118373884622
H              4.053956357392843              1.5954436655270046              0.9891437953158749
H              3.8103172023710976              4.3393689383488745              2.5321977593420555
H              4.128062860249011              4.186159682266345              3.1518272913042744
H              1.5566699096476666              1.927847787561846              2.908757497113943
H              1.7880838160198052              2.275186357564577              2.201156679523687
H              2.454119869440697              4.120596820349433              0.31451569868706253
H              1.7994090279919885              4.32375409779615              0.5697868034136053
H              0.7159588916208071              0.9207105660161875              -0.07346521758553985
H              1.264460491849877              0.6146231479535436              -0.4629255630869811
H              -1.2525251373401147              -1.9207720926828997              -2.362902148981856
H              -1.7376979342964967              -1.9821295519763467              -1.7471421869436334
H              4.215338172414255              0.8957344898838521              0.9605013747601292
H              4.219743737766224              1.678507293031032              1.1829797590978282
H              3.9566564133314968              3.9292368483293956              2.555419606644372
H              3.9286076587182106              4.227803733729689              3.2213734771080853
H              1.3319228295170795              1.9519494433337765              2.924773534324057
H              1.4189462411936407              2.217870198425838              2.2583808660108087
H              2.3640939267176817              4.4207195949091975              0.01725954912713411
H              1.9918704687818791              4.024609057173034              0.5365722778001853
H              0.6784315262310083              0.7140879374447159              -0.07266924438355668
H              1.3606391846754315              1.0124365979211356              -0.1439299671829859
H              -1.0474900668792535              -1.8145206618704404              -2.25260676477288
H              -1.6210757923606018              -1.890899555404386              -1.6736966680912566
H              3.7570094516078485              1.1273353552024916              1.1343058244607915
H              4.108003157112629              1.7263991850285902              0.8815327498685276
H              4.0286128838048985              3.8891099883146145              2.4823639481921025
H              4.039451601779775              4.170856814218398              3.1072906977194608
H              1.5795021874068598              2.2821558256830228              2.9528677784159867
H              1.9411620952138888              1.9333653866121936              2.369847676756425
H              2.6494205435122526              3.940754964496263              0.04721330822210564
H              2.006654916187934              3.860855013835403              0.32979222543298986
H              0.8293343914630437              0.7071986293129109              -0.212279562908835
H              1.247496916255456              1.2298348271950736              -0.5073143667606184
H              -1.1951064977723769              -2.1966400843445              -2.239908762768872
H              -1.7713122834793475              -1.8776526939221958              -1.7068445115186022
H              3.568916141112979              1.210221676418716              0.9624363108789628
H              4.188345753847604              1.7501980874524383              1.0224679108281753
H              3.6310974613626747              3.973143940421829              2.459371879049489
H              4.0402024138597135              3.9396288328809588              3.0655989223371223
H              1.6075791686944483              2.0491638188095296              2.9183224962139405
H              1.8904881264698743              2.1719293421193187              2.2124827216532634
H              2.827838316759656              4.065385412827616              0.1749546641101253
H              2.0901926808977866              4.006199996107964              0.3618066022710282
