72

H              2.2583047057204437              1.328882916918788              0.8077344993640335
H              1.639694899634699              1.7635247998023797              0.7722389979286949
H              0.469307942312802              -0.8470883515624281              -2.06021767496976
H              0.4308347541720846              -0.08904014771503083              -2.105698660990718
H              5.618070675782846              2.6883177557241016              1.4230820970093705
H              5.239262936482868              2.1100020980970235              1.4625271149434542
H              3.9595862891936386              5.079839690980195              2.89580676156926
H              4.441735405963299              4.432696005085479              2.9390354865556962
H              3.026171435362659              1.3785893086325607              3.2314242973618104
H              3.4806201645965764              2.0169906626178635              2.979833557575494
H              3.4633691232725825              4.042216600182495              0.47122609335846005
H              2.884454550285902              4.571769032671681              0.585142724523534
H              2.527996864181604              1.3102164864240018              0.9518059330509547
H              1.8853741193659834              1.6674616683552046              0.6833325116257029
H              0.5037045673414285              -0.7791198723721787              -1.958900449950285
H              0.37954835879214815              -0.14033707320892047              -2.0987497031050966
H              5.463379022354389              2.6269281667672177              1.3016147906605733
H              5.2133224333007835              2.0669666569052785              0.9376153481555404
H              3.9478059108559624              4.691479443190043              3.168019382768821
H              4.38430578619519              4.2319602790476205              2.7114319043541086
H              2.987725855792345              1.2768072626573976              3.385616232515922
H              3.176425912401165              2.0113155746025555              3.1676174454220356
H              3.1736376992147854              3.953492536681583              0.6496906500625841
H              2.614671506817583              4.406045963500417              0.5960139864705896
H              2.243235674595241              1.4828696679708955              1.0663907663065073
H              1.7574075605836437              1.9501717201716338              0.8620015377282133
H              0.41473524607097695              -0.6250074029453251              -1.5536547761868178
H              0.39377673141310127              -0.12149148748049378              -2.121340742826206
H              5.496115171284913              2.4720790639721337              1.4230352140324016
H              5.318391421423929              1.9446254851336737              0.9148692695125071
H              4.121422314505425              4.363266690659494              3.2469682952628443
H              4.312636314235476              4.250188218763845              2.5638982517954867
H              3.3357970379083492              1.3268810139535625              3.481833330285071
H              3.1779361564880055              2.009200575097783              3.2320531205442093
H              2.8121613938094256              4.131382892056753              0.8388666114297839
H              2.6151251336529975              4.702042082451309              0.43554200979420227
H              2.186590542942849              1.552631057493371              0.5656097567054019
H              1.8556053605353429              1.8477630867456147              1.0971226843152513
H              0.4469383161778569              -0.5852886073402314              -1.7132056058532574
H              0.2669633964664768              0.17858193158616537              -2.038595874043623
H              5.2530300697324686              2.506461107010479              1.1861535603082938
H              4.897448295850368              1.865687079543889              1.2990275431550888
H              3.824449919538248              4.518036336315868              3.166355955542335
H              4.320391728130705              4.1945584262355355              2.704379066926592
H              3.687552627246395              1.3155763056206549              3.3293837782541744
H              3.101346347767197              1.7829391230967264              3.21762043509413
H              2.82348115419759              3.9681017027442036              0.562387759205871
H              2.7891698285546807              4.6684107842186              0.24471127378776936
H              2.0216156459608574              1.6582333346203681              0.9997038423441781
H              1.4863039849508297              1.7949095253914056              0.5378337457243222
H              0.6914861249713006              -0.480560292193427              -1.8669500552315943
H              0.5480026877911299              0.16802537074212381              -1.9497915531133712
H              5.403327662905532              2.460831294507957              1.3452935649796325
H              5.08712105330106              1.8935048604908142              1.0821055392627343
H              4.020562020795156              4.904541296867981              3.1226163703328633
H              4.10187833925017              4.318333573057691              2.660788177259066
H              3.4304177020631896              0.9965483563445998              3.1433923616391612
H              3.3060856101196983              1.4517203161517644              3.632033192543114
H              2.8556059927757222              4.0883764319449805              0.6594924155947017
H              3.0138676475328237              4.826141329488895              0.5814590178475016
H              2.136498211836589              1.4435298951364723              0.8399902219017957
H              1.4224925676401745              1.6831629354380122              0.7541472880265044
H              0.9314867904069596              -0.6166856413645226              -1.8328381935333404
H              0.6432515584939962              0.042704425333053846              -1.788169098151169
H              5.559917272345431              2.4019934976781565              1.3641828409094423
H              4.983215200914674              2.0903050129667125              1.247719907928612
H              4.179606868316153              4.942053458386862              3.233875474758954
H              4.1040730829246845              4.384384029459501              2.7059564789101365
H              3.4169116035577694              1.3257076334034714              3.4339357533680777
H              3.1978713132661207              1.9640227165161797              3.1289843138456948
H              3.250172131467983              4.079027216997005              0.48518538976462167
H              3.0147253884644702              4.82144889234002              0.5399226573886892
