72

H              2.230639563564403              1.258637113785274              1.1179301126660506
H              1.5893132829741818              1.4632405315753618              0.7528788057097625
H              0.22302930077653307              -1.1491636241839747              -1.8336362021542274
H              -0.4075987658698757              -1.0560939350740424              -1.5774746589539748
H              4.845287439580341              2.022154980719526              0.8291708133613145
H              4.7596294295099355              2.572826925419057              1.371205964976218
H              4.014162709141992              4.625835828528594              2.553966947318845
H              3.9744141743099735              4.859150786593789              3.2225473940586946
H              2.750524531759605              2.6522673363607994              3.888540836354754
H              2.478484905423837              2.0221818820059068              3.9886763450759415
H              2.8569973746934667              4.284931471741687              0.3059156728324034
H              3.43240555556825              3.8747487501859013              0.4232160032812071
H              2.2425565079553382              1.2940446550925284              1.2520127266541992
H              1.7778017657662593              1.4355612700813003              0.6850008025890773
H              0.3314340727869194              -1.1499976959009994              -2.096456563678433
H              -0.2832345419155176              -0.9493416267345125              -1.6637039846735933
H              4.817865362187539              2.3349323390096983              0.6769607379702774
H              5.202727774825956              2.39624874357327              1.267482089914628
H              3.748778334263848              4.721970933500408              2.391276512791247
H              4.01125716828412              4.909722322852263              3.0212872852182557
H              2.2645774317038088              2.3782527479603957              3.638705376820731
H              2.9371295105190813              2.4380349318869423              3.929003912870678
H              2.6561264497370645              4.390326734750042              0.7028949878330603
H              3.083419033037575              3.7738479899474355              0.5393719467003197
H              2.394971101886278              1.479468371360251              0.6934451281402119
H              1.7682113613957144              1.3357790644971996              1.0708347224836223
H              0.49158077166180797              -1.0057474119087733              -2.0182770079106156
H              -0.17468340018503872              -1.0472460205874699              -1.7171813461750856
H              4.648237996375074              2.2089834602153804              0.5685910212506583
H              5.044489106052146              2.401663485764382              1.1100869388675332
H              3.44040476702608              4.449221487498663              2.5284081289547493
H              4.038604521229645              4.688233912580278              2.9529513634124123
H              2.5172716400049278              2.7911456344030237              3.5358856981031224
H              3.0870425878499583              2.4413644258919076              4.004085256323385
H              2.464141088969059              4.366003631126662              0.4906891619262255
H              2.9080907166242764              3.8085184197483555              0.313801230734481
H              2.2089736588261246              1.774354211957202              0.9889479926851039
H              1.7841729720219632              1.1737432411870352              0.8513013989132703
H              0.48139841093157854              -1.1177553656328851              -2.191511196596447
H              -0.026911827074328255              -0.7941420386023991              -1.8978331643028132
H              4.738367260987707              2.235248368101483              0.8384880548378105
H              4.976668522361925              2.182443792489418              1.4567429515747643
H              3.5445807373677076              4.580198653466588              2.424903231455251
H              4.078613527136822              4.6079323659554605              2.964871266512723
H              2.825512630153999              2.3607113013430863              3.499358754775266
H              3.206462185238098              1.8370787622657556              4.054119563684053
H              2.4716102602009236              4.344243607362094              0.47537973415423634
H              3.027453254470106              4.091445877100022              0.11449226624263249
H              2.1870694730022704              1.189539101068524              1.2415568874323135
H              1.5265152593732891              1.4987737326880246              0.91095960847453
H              0.7716697177280193              -1.1569833787300359              -2.0251488596015403
H              0.2469879079691277              -0.6684143175910218              -1.5601622676296631
H              4.888979586012687              2.131543839611947              0.6023366691781418
H              4.94416556841981              2.132817390076165              1.3865200395324782
H              3.669953521063276              4.378010622519664              2.8305268391966156
H              4.3366084343861155              4.598635223006597              3.034148223437281
H              3.0412982042131507              2.2328403387006586              3.2904069097795072
H              2.930130463636128              1.8961297888613713              3.9926176979996004
H              2.8810910427941203              4.702463659523761              0.4589225533354517
H              2.8341887781718027              4.038365613158989              0.09473883594977235
H              1.9343883912338604              1.535181159778413              1.164141842910429
H              1.3669225597159202              1.95090548816148              0.9657757894743467
H              0.5526471139688108              -1.282644964962744              -1.5781804725576727
H              -0.06696779184751879              -0.7681350293232613              -1.5204546340290757
H              4.800080796153565              2.2372773874795167              0.6746722762588246
H              5.135383407436637              2.113723493665747              1.3147110162613072
H              3.818840159438599              4.4763225555580135              2.8537961092843216
H              4.443887199289196              4.7357722809008385              3.0862573583992505
H              2.7316782142166143              2.531033227159453              3.6477533809193874
H              2.939728774507451              1.8632941003567844              4.0681171219543355
H              2.9478844550469296              4.704001161588907              0.5485396360450738
H              3.274026714594026              3.9683762714134905              0.40359004858769626
