72

H              2.474563714867754              1.6056494634609704              0.7272394346195467
H              1.8436570474061047              1.3072807566337945              0.9056316896488109
H              0.7135160190890749              -1.1115821324707735              -2.185863765643759
H              0.516915878901881              -0.49969882502494994              -1.830035067878079
H              4.587320383480006              2.2828103695044426              0.9234749493614832
H              4.878663992409267              1.8498464742493028              1.4741641280516549
H              3.4823243373282122              4.576537411296127              2.722402143724944
H              4.131405654923042              4.377795323538511              2.9685773900472077
H              2.953335650687069              1.8303938983244497              3.428965914477804
H              3.073866835460204              2.0936685327830324              4.091750554991674
H              2.651528359753376              3.951609918666325              0.6436993901664791
H              2.7783046766151447              4.258149236800811              -0.00851996539281736
H              2.3430502908358974              1.5943964581953807              1.2294916444564548
H              1.6960943909229296              1.4443361574672062              0.8052550135347025
H              0.9713247772341466              -1.048791486246328              -1.8264442806311392
H              0.6210498765022328              -0.4323143405940836              -1.569317739658182
H              4.782150023700421              2.3164021339791097              0.7923892126106843
H              4.780212828513328              2.0231030909803938              1.4719113589487642
H              3.884145569146598              4.321321329321892              2.9428800006195917
H              4.498150555415823              4.65232138025011              2.9456517568909537
H              3.372123895582368              1.9392908025389866              3.3421972678163345
H              2.862013502490454              2.2442854155746157              4.007754921805001
H              2.8047706225153806              4.291241759678706              0.698282513234796
H              2.9862369290447615              4.308884090123169              -0.024473504843249116
H              1.9918194386851442              1.401880346638075              1.2233217413961872
H              1.5630722358913238              1.7371948212707213              0.7405815672686087
H              0.5775960534578922              -1.1428008567496115              -1.6713991548558775
H              0.28772564291232516              -0.48097439225488              -1.5115660299184706
H              4.603634641926113              2.489984946695081              0.8048186473445862
H              4.83735554945945              1.8314097111256715              1.1231612840526677
H              3.719002201226532              4.5266573567275366              3.1359297532264967
H              4.460543161857436              4.718007116753816              3.033828049415409
H              3.3817108759697327              2.211262500142877              3.5768288287038628
H              2.752311418408997              1.8808697176953468              3.9352404137661665
H              2.8917714122243874              4.3042259975884845              0.7124452123783508
H              3.2320502176683252              4.172265092056605              0.0591386973822806
H              2.2946554552604113              1.1797989627250587              0.8744287666872964
H              1.9337580064546915              1.8132577427676582              0.8271606373818559
H              0.645222351922519              -1.1533602050681502              -1.8378106468820223
H              0.08500728393316              -0.9505496761521516              -1.6497386264208629
H              4.638426991963825              2.14696201940949              0.8640676957710183
H              4.875826146942565              2.2790163662715233              1.4881098801285568
H              3.6987418346594234              4.534535349362434              2.773245934735223
H              4.286166200540519              4.762017205477071              3.2170223606289268
H              2.795285729722284              2.4100889773151297              3.6387088558383454
H              2.5747672388889256              1.8928780807369459              4.10441520702305
H              3.0187783312330456              4.190387698226483              0.7220429077265739
H              3.2507096937474556              3.935094419451823              0.02857221496773895
H              2.526267038445092              1.4633727353189256              1.0861564132393138
H              1.878499405286526              1.3155591668395852              0.7161099283751964
H              0.713551104064569              -0.9927273008563224              -1.8579203475209902
H              -0.08064996629622995              -0.846495422938505              -1.7641745241578792
H              4.77864564715058              2.469274757103292              0.7818535937271381
H              5.042559134441424              2.179143294661852              1.4435425937182482
H              3.8016879640484227              4.503418422498228              2.6683882368268557
H              4.253717316580304              4.943342116337654              3.0303579606196616
H              2.6039990750513424              2.5251817467824935              3.299479615369429
H              2.96607779439231              2.429216634038093              4.016165877295935
H              2.52579780774426              4.0255613794943              0.7977484649050425
H              3.1024908599361947              4.072486081020305              0.260460763085094
H              2.63588786376156              1.630698960131965              1.0427966612936799
H              2.0442901309279726              1.4574577673036921              0.6564995011646827
H              0.5939670683388721              -1.0500345509838596              -2.1374744421372514
H              0.033163542702361805              -0.7144640600647654              -1.6726578217760424
H              4.4451177385441225              2.474717992382993              0.540612128109775
H              4.842206359198746              2.103237044519275              1.0261471663721118
H              3.5229166648368606              4.3542528633729205              2.669271761978169
H              4.046455939022315              4.759665242717992              2.931688608434789
H              3.029523340944887              2.5649760691681163              3.3274726175875866
H              3.003479920349815              2.161917151836521              3.997080323089676
H              2.396396857337747              4.101804447399794              0.753296661089205
H              2.879387404108164              4.0500811983252              0.11089595916632954
