72

H              1.0057571680798327              1.1071054090774726              -0.4697841740222874
H              1.5270932468680904              1.1673787727071134              0.11365151565677917
H              -1.6061650960266909              -1.395590905469444              -2.1883381063991165
H              -1.876178900712581              -1.5777475448396092              -1.5689165212410243
H              3.326419581559069              1.4884561026412142              1.0419740832959201
H              3.968030313447123              1.8524126298714982              1.1383610221594604
H              4.12736063936195              4.451725771780406              2.6806447003776466
H              3.8976270996827576              3.7902566680295515              2.7000225696779134
H              1.3606140868886167              2.3627058919359976              2.4821825943068982
H              1.9756111474116387              1.9730579149646277              2.417835553484624
H              2.163161945872385              3.843004096234716              0.6170633060176594
H              1.5174207653334817              4.0384561412943025              0.8677593836835321
H              0.9869958505056052              0.822453644175561              -0.64297641493713
H              1.2966542262313092              1.263541457243539              -0.05714201213171819
H              -1.7618640196739548              -1.524031868147067              -2.5348475295734345
H              -1.9050474846341179              -1.566679907792543              -1.7557833341198332
H              3.978186943289756              1.3150233118235035              0.7691140655016181
H              4.328811439795868              1.8540320771768195              1.2115359674508608
H              3.866707656661317              4.691484065034719              2.506057678526875
H              3.6252279910283325              4.134781986321648              2.9108417383869125
H              1.0764091953244819              2.3286461210120653              2.6436425610343743
H              1.6922980739259903              1.8679378681268404              2.5054555239039944
H              2.23289323908442              3.9690601174090525              0.3673642344856847
H              1.5581431764158786              3.984166142299713              0.4944478020142212
H              0.6227168466391937              0.6206224575987084              -0.3296017364942889
H              1.3018857833987243              0.9519036305272639              -0.18874627833383553
H              -1.6833647430452023              -1.4779135252461804              -2.805173901374118
H              -1.5579356817143346              -1.552362739444583              -2.088927940610335
H              3.8813768614389086              1.290375017868978              0.8480187264319202
H              4.3560291778281846              1.8384590623863892              0.8425291882593511
H              3.9820053460442355              4.710473996642204              2.783033958888878
H              3.510902907394136              4.23611772281856              2.819443265574521
H              1.1297215353192136              2.2875974016798337              2.6861136703036896
H              1.9198298933107363              2.1054635305100637              2.554430769616521
H              1.9139464418647618              3.842398758822353              0.04391877282770077
H              1.7888397303526942              4.140035675226813              0.6792277730726637
H              0.6896742938430349              0.6381250551921681              -0.43444404017027793
H              1.1211186589190085              1.0658193046149569              -0.026058267761576794
H              -1.338197291641039              -1.273541885043239              -2.433098981004976
H              -1.2297336657456597              -1.6634552964760239              -1.8132017013941257
H              3.8570113560332144              1.3921116674318996              0.7838348089999488
H              3.9792520157405584              2.1800128629378515              0.8792509509854828
H              4.317682632351242              4.467772966428348              2.5409397428782095
H              3.8026205583296315              4.157681493557901              2.9504531589909604
H              1.179292129747268              2.3984151519704358              2.9168707752096363
H              1.7009712386541345              1.903883462901182              2.6829790252727164
H              2.1816446673257026              3.977081342968531              0.3056644129926861
H              1.6796034977837422              4.153413853657334              0.8274263446606015
H              1.32376373920283              0.6864833180050328              -0.6118850249551447
H              0.9986932464104067              0.720813116146183              0.013862330974237929
H              -1.5156971664362417              -1.2402090211991168              -2.2267946403194916
H              -1.484289119275588              -1.9096263818775787              -1.8182131751142505
H              3.9740908293098554              1.4989259937998147              0.8452384649592234
H              4.241633454121931              2.118967742323963              1.156918747142844
H              4.2912458169918              4.299397116552211              2.500328133632304
H              3.889630582525599              4.033357180684015              3.042100499989979
H              1.1815900784055628              2.3878457627146847              2.8530573210216645
H              1.7019107696870623              1.8403237327572772              2.609619349977014
H              2.462942721044986              4.099591352615008              0.7007802563459808
H              1.6916958701478353              4.096414930744176              0.7614774082046243
H              0.7976576634443878              0.7862986889741569              -0.434480671223361
H              1.2425053756580315              1.1470638858388489              0.07997287604360438
H              -1.614296419214745              -1.4615678110068222              -2.3070990273084853
H              -1.5942404827778964              -1.5822040667326764              -1.5461494014045905
H              3.6153415459601512              1.4757015752781624              0.8079899180453224
H              4.18041356872098              1.9489720521701872              1.003671400093457
H              4.134867330356166              4.338266633457801              2.6697069390223382
H              3.8126640394082147              3.682439595749556              2.798663232248351
H              1.4657551380784843              2.1354249827005884              2.94888130718919
H              1.4465182244361328              2.1390496471712037              2.1609082555936148
H              2.1821716392761434              4.154463298133403              0.5399421026364246
H              1.5980647175101679              4.106363939676491              0.9906281569042497
