72

H              2.3545401350626407              1.2553668453033089              0.9899276878637644
H              1.912739639924278              1.9187598185262322              1.0474079744854687
H              0.5611221011821917              -0.95308932966224              -1.709427763799358
H              0.20161558226307255              -0.29806699402995246              -1.7915531123461632
H              4.635452226466617              2.3482597712894115              1.143132430794625
H              4.967310416828701              1.8028662137583296              1.5599639998319694
H              3.7544624065552377              4.634662258249521              3.16809520648658
H              4.503516495489297              4.6955144167714415              3.088981945742134
H              3.2856748930723              1.5859082560343563              3.06876752382548
H              2.9750422340795364              1.8328188155652005              3.7327094289497844
H              2.7679158543315694              3.9566540990224244              0.5750210386677007
H              2.9508163518158184              4.469918202110401              0.033497637236233765
H              2.607385761353314              1.5407876299090206              1.1139830747594552
H              1.9527882592677164              1.5723664997243612              0.8448965362383902
H              0.96437423376415              -0.6889530259776206              -1.9039232198608969
H              0.33019331437105864              -0.39581078877074527              -1.6812240261770164
H              4.906725453859495              2.371398283546885              0.9249177079394346
H              4.8981941299175915              1.8503039193155317              1.3689102417887191
H              3.7163421752807704              4.729334046419474              3.079281733234719
H              4.463846602751899              4.934580750430604              2.8574191688926347
H              3.2495447047684687              1.811812768879114              2.9104422549884927
H              2.9661515271190875              1.939793775417459              3.5394924258145437
H              2.6041413184779687              4.090858649477231              0.6515235559658388
H              2.9167707992548455              4.530285695879053              0.10631490273628592
H              2.2950411082145457              1.8812014529277505              1.0301388662088022
H              1.8196626672557328              1.6545801469509795              0.4805562766832176
H              0.9329228839392504              -0.8495384615720183              -1.979164328804381
H              0.5587686561394295              -0.2952993894128762              -1.7679223564588606
H              5.079499458833372              2.5102281813921743              1.1079244866047726
H              4.950639437877043              1.7807667102099844              1.1368805860290858
H              3.704026653501075              5.007748062472482              3.069155225277663
H              4.349950235801971              4.718384951352227              2.8298498826443264
H              3.3822638945482546              1.6646615441668406              3.129984958537798
H              3.1085246817753998              2.085147750644608              3.6414863593820983
H              2.7001776221308993              3.990175865248245              0.5974233199803662
H              2.737810730465023              4.6093752772539665              0.21879456128130187
H              2.6152053147485192              1.513038134306521              0.6382445664924121
H              1.9391866669070539              1.763486994755282              0.6512252083623197
H              1.0221269779607152              -1.0434113137231962              -2.2300392271522163
H              0.7068049590482819              -0.3516011210729298              -1.8957916206169472
H              4.85242018926017              2.539743561133522              1.1018239444099387
H              4.761841081207197              2.1467088871337574              1.673578771665348
H              3.7956786409303445              4.860637073688836              2.8592978660219845
H              4.411114838214472              4.5090645801763705              3.0605955779913576
H              3.345137706342123              1.3324235925301933              3.609228087575273
H              3.006207618455865              1.9261473503664959              3.4751265183998563
H              3.0920713696561215              3.7808566230032574              0.3993913302634768
H              2.657816838269215              4.262357686072327              0.14125677475745396
H              2.388804882746347              1.6159512592862155              1.1631973396539848
H              1.8183689170693162              1.4897847359643386              0.6884265157025792
H              0.9389542664988832              -0.9839487632110445              -1.806829546032567
H              0.8446765670140093              -0.2392581318030156              -1.917799940527537
H              5.06827599772939              2.72496521631286              1.322485898767447
H              4.89390878168248              2.0315318793106942              1.1786207682971594
H              4.033280244154128              4.6216196032778685              3.1728346075871245
H              4.669847020866877              4.456291446223234              2.8086367686731597
H              3.115513973730861              1.2310292883093528              3.479411895014743
H              3.159852719854053              1.8913073331058399              3.705284963374766
H              3.0282361782532057              3.7886359818038713              0.7280261093379897
H              2.6811808316189603              4.315490515200377              0.41962975578503103
H              2.309482010485526              1.4038632726350964              1.1285963168257116
H              1.866216264518877              1.9541290121786212              0.9701043896838147
H              0.7611815127343924              -0.9580261031925738              -1.4485212446479925
H              0.5522116239215904              -0.3255727611555281              -1.6314691854549996
H              4.738823851443263              2.5611969644126327              0.9576723793648655
H              4.843060219028029              1.845059309049335              1.051802091722669
H              4.062164883165229              4.229604092221112              3.3990706930216588
H              4.518588762681547              4.552356989946066              2.8983667255213024
H              3.4392867800307334              1.7178866327182434              3.6449284563100717
H              2.8557491684856586              1.980121932870228              3.5499288505762263
H              2.870062929847612              3.9631062227290834              0.7696759113652072
H              2.875722963346989              4.293520211452149              0.14353378998717825
