72

H              0.9639626654284756              0.8905224064233253              -0.5484294564628178
H              1.590610087651056              0.5145418559900334              -0.7000135392511445
H              -1.019289514787532              -2.301444436471199              -2.458260235026654
H              -1.7096770301124884              -2.5164717965889327              -2.1583629614033084
H              4.228194491270445              0.9032613173741679              1.3816256094744168
H              4.533713686296263              1.4076130908906672              0.969453045474422
H              3.755030074622716              3.7259811957102333              2.996098632875175
H              4.0877675701803895              4.332301307459148              3.1229579264652876
H              1.3834798609908683              2.1401358559879347              2.8110675039955093
H              1.677987047696025              2.5363649647716224              2.208363840907038
H              2.630349257120567              4.120691378746301              -0.23051980428579824
H              2.278181424460099              3.853517312526428              0.3654473346976239
H              1.0876518298166797              0.6522387502787541              -0.6286553872465751
H              1.5313424912868743              1.1386908977148413              -0.3239154933691253
H              -0.7518712407339365              -2.3217849546798237              -2.064304303426305
H              -1.4563311575344096              -2.2149549513882807              -1.8290362842653187
H              3.8099232039689483              0.9996663686678737              1.351821849145993
H              4.081134666978679              1.5356755927785661              0.8374631282126247
H              3.9246298617648794              3.53955658591539              3.0618444049029114
H              4.379256467273999              4.068551446192325              2.855330958298163
H              1.9135973154813668              2.2388028906040027              2.8606776255510153
H              1.2940248477076344              2.310374350279862              2.209125866607432
H              2.810225881019685              4.115398770674841              0.10301462688640467
H              2.14935846785618              3.7226388577902534              0.36689408532894474
H              0.8621684276487129              0.9464815808428516              -0.369616704144633
H              1.629497492763827              0.9673986511265307              -0.2600525884245021
H              -1.0591475891672155              -2.4720645191438537              -1.8261924160418408
H              -1.822751090463792              -2.4009094873018473              -1.8750435544491721
H              3.5776567987267427              1.1572477733369892              1.4167804649780753
H              4.2198292114174185              1.3912265717724714              1.2757010560313398
H              3.870284989629619              3.6886902881945924              3.020251490149643
H              4.5314446780771265              3.943323388722491              2.997470149336113
H              1.6365760632395705              1.9371777427704628              2.7873781434265386
H              1.4895183548365758              2.196637255966189              2.1257434433448443
H              2.9087253869824385              3.878302886669493              0.3064741690008313
H              2.151634054187738              3.8156648822257835              0.24553547814248178
H              0.7511561902090633              0.8314039389760887              -0.4570489760536667
H              1.451618589244709              0.9511966708685228              -0.28940593956707344
H              -1.3049321273156689              -2.5049160029066844              -2.236091697430514
H              -1.9971180627716603              -2.6605176380893187              -1.8866722139811951
H              3.862781967050847              0.7711465593675082              1.2739711850554645
H              4.4501613323601585              1.324929144205095              1.4469471146640804
H              3.476418717488379              3.74424163348722              2.963960625657699
H              4.074610002252408              4.110710890551722              3.141737961933121
H              1.4418435303834554              1.857582301421259              2.667059952755424
H              1.3075219921635777              2.357858707992209              2.1752836699892373
H              2.531721655401358              4.1146842098453025              0.015073676077250147
H              1.957140924918563              3.7017852538084215              0.1626217681575613
H              0.9869215993756276              0.8433237332722654              -0.6857689781810803
H              1.45495281167594              0.9943084763484618              -0.15286814572796206
H              -1.4291543340634998              -2.2171778394712027              -2.352800593875258
H              -1.8987730768354951              -2.7512415664345737              -2.1235522037180274
H              3.6660815205435067              1.050995199131248              1.3727581376392006
H              4.268933952554932              0.977936906048333              1.0344810253152505
H              3.601617296663298              4.0296937506513855              2.740327741200308
H              4.093891557155191              4.262200949031195              3.224628133554137
H              1.9043736418613053              2.1355269684229445              2.815560593883311
H              1.5053619824635183              2.3457959710092973              2.2263398684133033
H              2.4726436911119674              3.7364521978023837              0.05814413036867174
H              1.7253043412933053              3.961117901785884              0.06852096909635749
H              0.7483904894558392              0.9615745999643426              -0.6294525415372524
H              1.4241973255571796              0.7604042101366202              -0.44045535226031407
H              -1.268658566744304              -2.234991230969996              -2.2835605696861454
H              -1.9515516174931289              -2.568373472981581              -2.202044525020939
H              3.9938599536992037              0.8727367425582297              1.2038198056008746
H              4.415987237163128              1.5103291070396367              1.0905920888402532
H              3.598812011790232              4.015038501743672              2.946089984594338
H              4.189554402166887              4.381160083386463              3.039464229742277
H              1.6881741519462432              2.1568076280651614              2.9448113351792355
H              1.270964786808133              2.2772280770325417              2.3663653583781143
H              2.647216265995208              3.905599639802888              -0.15488124769194614
H              1.9698888347666548              4.020319451871              0.11778331257770291
