72

H              2.32480076420165              1.28417365552818              0.5322265335549174
H              1.874611440394047              1.7940686181913121              0.8371570744971679
H              -1.2466474050460519              -1.339328462023898              -1.6170695256924417
H              -1.2944690173518436              -1.6766048658316774              -2.252163425249021
H              5.120469957343699              2.556320269354356              1.3769973673626719
H              4.956858691552459              2.399741970088593              0.6167115146235536
H              4.780174435354511              4.561820719787368              2.95716324518157
H              4.499505390310127              3.8522398374667683              2.886758559981654
H              3.248972271713868              1.9593152687836701              3.583226505839632
H              2.7207534883966957              2.3584645581032406              3.3652384932549197
H              3.243815664073981              4.764203952489588              0.6429483201496735
H              2.705485512386218              4.545661648993743              0.17061111581867563
H              2.3719035528323644              1.319439052751253              0.7269260742574736
H              1.7584660127677636              1.6823449915724245              0.6506289897693547
H              -1.6836364568667315              -1.2839002667971564              -1.791978796987673
H              -1.3976369067592433              -1.6611305261460652              -2.4752765295340824
H              5.356508492859332              2.418326802822153              1.3123364457060416
H              5.0608904186748855              2.514491940174504              0.5908579384409347
H              4.460115174527586              4.836912690825416              2.8021214783059785
H              4.52442005692558              4.127622868247512              2.9500022950164215
H              2.933211655266655              1.7660655026339107              3.836272423364213
H              2.799707995024506              2.5117681445231193              3.7335613477357517
H              2.8925681296157446              4.607997631793336              0.7317912734374423
H              2.6926226088981413              4.308815105799098              0.08208499314530202
H              2.6625106390814004              1.3746405591233202              0.749846597429498
H              1.8950932231466386              1.2279451737841656              0.6781563567550406
H              -1.4571939956177375              -1.1151112991808185              -2.192225400067298
H              -1.2014067761841445              -1.7141506516804266              -2.6015978629140144
H              5.147314834133561              2.296956823594383              1.2132211400680797
H              5.224679352896379              2.7232808429702504              0.5248540286514543
H              4.354276169042772              4.910562782162025              2.950853491951703
H              4.462037249437892              4.181861262723462              2.924903108691706
H              3.158476220527843              1.5651141769734285              3.5849877223335125
H              3.0421751118759626              2.2357874473945425              3.656520536163127
H              2.990496343641717              4.305997941394219              0.5828967761820013
H              2.281431808027411              4.178712547017608              0.3801073704649433
H              2.3210017970480057              1.3155908058551682              0.725197758697578
H              1.810862379679381              1.7841424434636701              0.962379028965789
H              -1.053605557770444              -1.1794331038523023              -1.9250231485442
H              -0.8986557701506019              -1.405333887225146              -2.5906257996967477
H              4.78132370686431              2.527762761617172              1.023522543717835
H              5.177892741337691              2.3278123461581854              0.4805016921018426
H              4.187558727750176              4.824950403585562              3.0607725142519695
H              4.636971302622287              4.22787961402708              3.030774969617137
H              3.2789895274709617              1.631884515896949              3.6816342587699102
H              3.3346239247462304              2.0018460230812494              3.060637175254916
H              3.0870670916935206              4.358472691378777              1.0057490378429133
H              2.598214984862574              4.228762051375181              0.4065312151730061
H              2.218782545110183              1.413143902433276              0.830490326669101
H              1.8501768989477902              2.0393850450657784              0.6119748657791722
H              -1.1032859277168823              -1.417791178479156              -1.6589622532828225
H              -1.0183807137283416              -1.2966441881569457              -2.4469055305193956
H              4.811834046616454              2.0787577090761578              1.1620734524593141
H              4.885323514179121              2.268522965185945              0.424651936348964
H              4.326374857308339              4.57060613499589              2.8151198495028904
H              4.577685482716593              4.1583892514963985              3.3073324843619116
H              3.589620204366838              1.5829511850019564              3.7456856028385928
H              3.2471202297876034              2.089818567161577              3.2595304823542395
H              3.1372197461274425              4.607548058677904              0.9381834820524592
H              3.0760229485869877              4.436371052643682              0.22976144509951343
H              2.223983139296534              1.7877190786323927              0.23638123966370164
H              1.869864652370697              1.8219906916341815              0.9197297716146702
H              -1.1474514667391629              -1.3706063384288516              -1.7187009310605954
H              -1.402889255258437              -1.3441760071099924              -2.3960810640726886
H              4.924609281215552              2.0012317692174535              1.5306270847632986
H              5.133758980472859              2.4541020354530163              0.8876206988249005
H              4.512858158321206              4.7035931241196325              2.8023497752086026
H              4.625672773423323              3.902662399545017              2.8001238022339896
H              3.5729393552328825              1.6355716589283258              3.622073847572602
H              3.0278110313721998              1.8175157327083327              3.2190168896467735
H              3.2866394558718888              4.5490723552966426              0.8781016002049322
H              2.7884736894541176              4.324499627919836              0.3197378457494634
