72

H              1.4764874933948502              1.5967025546434046              0.14655367693401095
H              1.5104226416531565              1.1125613525170572              0.6600060815843037
H              -1.303719229311486              -0.039804077870286704              -2.012979344804692
H              -0.5872513677893213              -0.023635755361224735              -2.129589720754336
H              4.0748197864869455              1.7727152825575334              0.4889255286099974
H              4.280555786510084              2.524539019197997              0.5259102668553333
H              3.7494911906663857              3.956516790946244              2.5170909025635932
H              4.0828376163371844              4.524795540733439              2.9233053621251415
H              1.948960552809893              1.7853866811860757              2.701634858654418
H              2.6392996648422278              1.5965753260655826              2.9032746696814895
H              2.014683168295219              4.109280909080159              0.30797215465171857
H              2.069143450601752              4.450511530824909              1.0364580828688748
H              1.5883679183970967              1.3052395616281096              0.25684674436318616
H              1.2179550347883015              1.1749003669678182              0.8952104079979144
H              -1.3411353872663074              -0.03207453145886              -2.2230366138844846
H              -0.6000786977760505              -0.21693909494481106              -2.1128177735558773
H              4.40094336108701              1.7332533496155629              0.5763901674808921
H              4.71796077747472              2.4091233733804702              0.6884757804428444
H              3.6614536210105286              3.8981999590213823              3.0510272471437743
H              3.8811701807019334              4.617013397540841              2.853551217790636
H              2.2767817763227574              2.129784669980957              2.3317008231143213
H              2.3735016884659177              1.6711312662291349              2.8501215257722317
H              2.3482902207092473              4.014341432704054              0.18724118487574173
H              2.1261489071976096              4.305198448129518              0.8126929590278319
H              1.5558097512597184              1.8223284103742832              0.14661786974912444
H              1.31474673723377              1.2257520016814119              0.45034077652970667
H              -1.1560740692214695              -0.35556703511618004              -2.366061749212834
H              -0.510639492234881              -0.12506747945384952              -2.1446536026832743
H              4.458218580523132              1.7238718082878004              0.7001447036217983
H              4.834205379712102              2.30995032954096              0.3368045677265756
H              3.491311266514052              3.949151697994082              2.9802360338628477
H              3.9151848018631408              4.6263068629194946              2.929465541399997
H              2.170868386175379              1.8330296475442323              2.4657982362797943
H              2.1595740280520355              1.9933335757861275              3.2379166455351167
H              2.4281725312888454              3.940384553741354              0.16204462730084895
H              1.9106763414177406              3.87748604990092              0.709248099020904
H              1.6310081209539737              1.8318304425040857              0.20879706738685253
H              1.20243142184267              1.1987838503790509              0.333855069668822
H              -1.2685542302102288              -0.30832362319584306              -2.324158119618605
H              -0.6642751918991102              -0.3758368182802486              -2.0254124742753135
H              4.167443082820836              1.6792214969411001              0.7606807956326969
H              4.576366590176054              2.3645127439138167              0.540039420348681
H              3.5469670217482228              4.1724284829301315              2.958580018404874
H              4.062243334629037              4.643494784388695              2.724906592596687
H              2.236372644347267              1.7069446106446888              2.697068118125814
H              2.3836684231174567              2.002308864988111              3.398102322315504
H              2.446570794486858              4.088783627260413              0.5202528097823955
H              1.7281684641517048              4.089401430908697              0.7742612191518224
H              1.4497722555322623              1.8401967116910218              -0.0449658823729783
H              1.2160287129342335              1.3230015116318987              0.3387502003395688
H              -1.6506594336757328              -0.36207341011832833              -2.303821470187806
H              -0.8405855186150752              -0.4971807625953919              -2.2507045958278975
H              4.449276337207365              1.7209292706852026              0.6982355729426393
H              4.508102511135151              2.439858452688808              0.8434441275470835
H              3.383078620471116              4.349805062760134              2.926249145156978
H              3.938920369485688              4.472345369762071              2.4853590945435884
H              1.9044978008829934              1.5898882344732705              2.723226959359285
H              2.3086997053000466              2.0872260087855956              3.1757568834162004
H              2.397753052995472              4.18843688058293              0.6137697406131424
H              1.726856937980726              4.0713468087803015              0.8509573835195416
H              1.4168995667692132              1.7937640227931015              0.008134620016185479
H              1.45874784473012              1.069870451853376              0.27331858071677717
H              -1.5987322938189157              -0.1561054537530268              -2.23329463445845
H              -0.8495641200962133              -0.32230562286600134              -2.5513493734536947
H              4.219542347589924              1.7664370894376293              0.7797850697698953
H              4.423659122943194              2.4517599707374185              0.7219024802034282
H              3.5038679060921765              4.081674063074283              2.562800653078776
H              4.019399046298704              4.6068978331015895              2.821064422767953
H              2.033638427304456              1.5457167810115062              2.5957171915695105
H              2.3543710628786676              1.9255254631102994              3.0231468064987155
H              2.0887096501425675              4.007531311052673              0.4656406583436528
H              1.7952424240041156              4.329190263288971              1.0543527272005802
