72

H              1.456911665272902              1.5832234373036707              0.1616886101274248
H              1.5139333957413663              1.108137544340356              0.7619231230516924
H              -1.455908480207206              0.013762336079506075              -2.0094560522743254
H              -0.6197593942657929              0.013910047510309812              -2.0562614684746467
H              4.222000967388816              1.7692250810151604              0.4307484656688913
H              4.266525759564253              2.445563313200414              0.4185641241356963
H              3.6640471621639135              4.005584629061615              2.5566659875981377
H              4.042054279284199              4.498986146347812              2.867896103135831
H              2.0324840043017645              1.781717268000297              2.7082901755871434
H              2.627113422794873              1.5606566967350717              3.102849526718626
H              2.113070858470246              4.087589277680823              0.3790945310667619
H              2.0507839102082315              4.473869542291531              0.9477129525623833
H              1.5647062760424688              1.568128433793955              0.28599057675838735
H              1.1152425219303066              1.1589404250543982              0.7784768706897423
H              -1.370594597409183              -0.08963456031230092              -2.292140041275141
H              -0.6695682994662671              -0.1625933130236821              -2.160710618548743
H              4.221451484994926              1.7866906265860398              0.7294808475892572
H              4.721111416014901              2.3405898228007955              0.6029628517078587
H              3.5052409897327053              3.969517738146253              2.9882392881660675
H              3.9020515453063727              4.589941801135232              2.9262384593273274
H              2.2553913047335947              2.126756744808428              2.369208937818984
H              2.4597220902250774              1.5988067138411042              2.8869019488653533
H              2.4075158245620916              4.146471895072182              0.1540382257916134
H              2.1018596013789828              4.343112257487602              0.808951632728289
H              1.6691569330969513              1.7272595087156357              0.07942529907834386
H              1.2303894380626463              1.2624318508335763              0.5406848426942336
H              -1.1177155500085807              -0.3604236927895508              -2.3344154101449295
H              -0.38874873272259              -0.03392377016887421              -2.2543845696770317
H              4.435792916159025              1.7743853690193134              0.7711876294541076
H              4.667525733867328              2.3956243309086127              0.5425552527649855
H              3.536334690864575              4.0421093755789155              2.882214577853082
H              3.8245486734640175              4.6662906453814275              2.937121071745367
H              2.078582033871389              1.8435165809884313              2.513248486100103
H              2.3350724445761135              1.942999433759786              3.1665641613363906
H              2.4393211371858534              3.909099707198889              0.16879455965564089
H              2.0379338935355706              3.8649537538944445              0.7782285502174432
H              1.5030412157722066              1.9067023338973976              0.19652109558289535
H              1.2877210188340322              1.221219685064207              0.35034185565752984
H              -1.301113471614465              -0.2473269311343231              -2.370884365991711
H              -0.519300179827111              -0.3368899841700047              -2.1284496036881464
H              4.4631143605493975              1.7589759903919402              0.6611142079913364
H              4.623491403830634              2.4032231878311436              0.43339239249754075
H              3.553706544137698              4.254721699443995              2.902040268215828
H              4.101439435417015              4.720339053778884              2.677778412178862
H              2.4320825994387554              1.658568632295179              2.6968160877558667
H              2.3360682303521325              2.086924308754244              3.2656393686688534
H              2.5105939309739536              4.065295646654623              0.5635341112077445
H              1.8221592318203912              4.20412375429857              0.7064427413277569
H              1.5391612793065654              1.948145659756981              0.03475855498494497
H              1.2620148111544043              1.2113390317298889              0.28020835691803
H              -1.485728856341408              -0.2760933466133626              -2.2820563557698526
H              -0.8258718004897775              -0.48639985187175816              -2.257938814144533
H              4.27369271816664              1.7695467714844              0.5898472864196668
H              4.545914865615037              2.4033326530664483              0.8198180331080827
H              3.436409997061744              4.138351946157504              3.0354259353196347
H              3.9680457287666857              4.512224356808585              2.646725995376293
H              2.0079120651472846              1.6501017021176287              2.691897727117249
H              2.342643123058849              2.0895438930060974              3.158905461362177
H              2.361146461257788              4.267225666507373              0.5264588215829843
H              1.7573553039387138              3.925182489080327              0.822720844004029
H              1.3981329403459462              1.6880511987290021              0.05292117102395625
H              1.5516781202310994              1.1246048608603567              0.4796821659920469
H              -1.4095263503324338              -0.18263960308528374              -2.1079776784599327
H              -0.8351344904172007              -0.29150886683696214              -2.4249364241405287
H              4.335469034635563              1.7093683349664592              0.7985152722881012
H              4.496380476293127              2.465846126053522              0.7472227323824132
H              3.669907431989767              4.061235147917571              2.4803222854043128
H              4.046289386790985              4.5130904879513505              2.8906577202855988
H              1.9465666899973264              1.323763891717005              2.7926722940655546
H              2.4314610646251906              1.945376111414189              3.0901297376670525
H              2.0983611610019355              4.084543952107284              0.4745249085881156
H              1.8760174410978834              4.331112222224791              1.1339746571255365
