72

H              2.2372123024615065              1.2980907135190993              0.9967263381642036
H              2.060952839505992              2.000075234453573              0.9080217903392273
H              0.8676639017083196              -1.05452149327139              -1.727068344259951
H              0.357371206130711              -0.6385187334949995              -1.7089682123430894
H              4.707239411936832              2.438115987082736              1.061382055828266
H              5.134609509909251              1.8793730217684805              1.419512127648324
H              3.8231919455915664              4.7173093057283175              3.1754076332952894
H              4.518112231467264              4.750636838016404              3.0336824299596445
H              2.9287435999025284              1.6719373331876284              3.3075627990544283
H              2.8114883854803416              1.9520589222059783              3.9041318557554847
H              3.09123905903569              4.170978141914257              0.8252664009149637
H              2.9778279514120047              4.1929084543725015              0.13806770193926624
H              2.690972723888969              1.499975582757149              0.8919226449954739
H              2.0198924231445967              1.4802360807788482              0.8935932090926392
H              0.8654563555745348              -0.837600979356957              -1.8221365565911467
H              0.08977471391531042              -0.6956428873841979              -1.7382741797821286
H              4.860444994058142              2.427907217527469              0.9433669520418655
H              4.934668823670327              2.0352778386417207              1.5159178333596584
H              3.789501935465878              4.595536979877496              3.0316377533222103
H              4.460531942283738              4.9201611915449845              3.00315529926522
H              3.163260575002853              2.1901598003011986              3.0233090149362627
H              2.8481075687207853              2.286871790316976              3.7085163746253427
H              2.655989071179766              3.8752940799512894              0.5997889878745575
H              2.853905330404869              4.3741409614131355              0.0957639607973471
H              2.6336283981481294              1.7285795036064695              1.106620095240682
H              2.1829829880903455              1.698570725332406              0.5145452465461451
H              0.6818960868707884              -0.9642942394417383              -2.1519553341688935
H              0.3174002254316511              -0.40911378549510347              -1.8815919511399037
H              4.682949177517969              2.587886891219391              0.8783995130734658
H              4.891636216381503              1.9921055970823234              1.1699679422002414
H              3.580610284154647              4.613409087545019              2.769024309463509
H              4.337664115025562              4.853485264610863              2.9575993678707753
H              3.1868532328005728              1.790728282879129              3.039694655392679
H              3.1997432443986655              1.9221747741806514              3.757830783901197
H              2.527455282372291              3.8470700020149384              0.6708545261492307
H              2.6449628828773712              4.353049641676367              0.16851988631086123
H              2.6396893548472606              1.5934781645059848              0.7689723119079124
H              1.891145515645611              1.6349736206482626              0.7618837755058315
H              1.0055932392500064              -0.9124176189885684              -2.058282963566045
H              0.8621176068045374              -0.2810662917444538              -1.8011895199417924
H              4.730387830270696              2.4698469926266093              1.082334063018353
H              4.6495823216557515              1.7895001387227663              1.292082121295346
H              3.6586426275214703              4.672753923927533              3.0807356253897753
H              4.361392491531469              4.366033965323443              2.8715037668400947
H              3.1786839462355885              1.370059520945129              3.4690912238392007
H              3.110658076724914              2.063163347936974              3.6529881683858174
H              2.6578456441597664              3.8796398737116724              0.6431896429566606
H              2.585139018394768              4.240776391516142              0.02398146991320128
H              2.3021752401794333              1.8972665873194456              1.1406898676040371
H              1.6909933457987902              1.6712058438138493              0.8017566270384828
H              1.0062946512896411              -0.9693165223056879              -1.6765949446261095
H              0.8589790763848653              -0.1684073626617792              -1.7130854504437576
H              4.8793340124373845              2.5697022593215983              1.1168557849422063
H              4.745086387891153              1.8800025381995342              1.46596208563192
H              4.035119121155874              4.586503226966664              3.1453420848330356
H              4.686101412210196              4.5658103695702295              2.830107230039102
H              3.6009132897448133              1.5162485612978767              3.4884452358023332
H              3.009909640406286              1.9893744154289024              3.673604896268836
H              2.8733280180335665              3.8877873247934973              0.557081758753636
H              2.9285851233869855              4.536501997401601              0.2211207963654189
H              2.221210704254806              1.337706394460386              1.1673247178385149
H              1.735976602198796              1.716633177521926              0.7654096519875381
H              0.7500551286146442              -1.0011068992878962              -1.67568709737716
H              0.5466228667875774              -0.22429650794226658              -1.6096564146622363
H              4.654664544162106              2.5644248063891233              0.9427680942567476
H              4.663082593242314              1.8473776683228373              1.257851720014447
H              3.8258177259163273              4.624275362388095              3.3162434089095827
H              4.588625647145166              4.634386145097055              3.094458093962851
H              3.5282576494616156              1.6949509907193767              3.4843644260623994
H              2.8485125690089887              1.761785429698002              3.60888169009545
H              3.1050995545563644              3.8200207270994575              0.503284619426336
H              2.9637956172533673              4.41110333483243              0.12320855383329347
