72

H              2.256560132893523              1.5616586995711674              1.2730391681542603
H              1.743013436068028              1.791695585097042              0.7915444004529171
H              0.5241710682567726              -1.0800873090520848              -1.9816280454903652
H              -0.2913305883457755              -1.1017004423035959              -1.9061678014698895
H              4.766271829744606              2.3736642644223562              0.748668457025304
H              5.117675296111374              2.4949098946114714              1.3656943038608238
H              3.7084597409807576              4.614310348357589              2.6019694184803996
H              4.390198978328498              4.824072041558457              2.860487345810898
H              2.7391176187096287              2.4195778786153044              3.3659650629048574
H              3.291858740863263              2.0515670232727414              3.6968171193769
H              2.64747111418638              4.640228588460129              0.47397178915952265
H              2.7155979829218904              3.9458185553437355              0.2532227428781084
H              2.195045030819165              1.4052667671078556              0.9046847398577751
H              1.5300011115602261              1.6821697059955725              1.111139053725463
H              0.3998376826368356              -1.2414593422532167              -1.920695703285245
H              -0.332900325090029              -1.1925962564153392              -1.840759679008204
H              4.887923394770113              1.9549658294312584              0.679154584975111
H              5.049676512093681              2.4518366889869827              1.3231055013114543
H              3.725696386334031              4.545275216011177              2.6628489192944382
H              4.279484340436825              4.595833898638941              3.2669343951831684
H              2.744855615279256              2.323819727521621              3.5548688914691495
H              2.9087476967512913              1.5125971655231965              3.835885272452165
H              2.8453587472242328              4.592964089310617              0.16866063096358203
H              2.859289660647187              3.882286338738997              0.1602190850889888
H              2.0953509052747132              1.6089086617771409              1.3068551114953664
H              1.6108780775614888              1.9601340081772916              0.8784459874038877
H              0.30783555031936555              -1.3562741576927615              -1.7578392918213632
H              -0.3597012078984864              -1.0214442754801454              -1.7142285015226204
H              5.048214389930627              1.9720033076871468              0.9898656131446205
H              5.221398599185275              2.5173805621614966              1.5171345240724368
H              4.339147718244729              4.61451013678315              2.59086068521067
H              4.300257826030639              4.735066823041839              3.2844300527228434
H              2.2558087474394513              2.202119965746664              3.6938085895454003
H              2.9106259930870837              1.8751491004707674              3.9551488297309016
H              2.9849645738596546              4.579575756656618              0.3867942331187731
H              3.0845186030877088              3.8533028692513454              0.49597692763638246
H              2.1326174137715137              1.369204095216865              1.3167458820213382
H              1.5827002690263778              1.7126949400287768              0.9758101871513664
H              0.029845920978846963              -1.1160911377929723              -1.7092157771714442
H              -0.7180785483140044              -0.9383806417477016              -1.3983542891512906
H              4.71530890118139              2.167737306243283              0.6126649612416263
H              4.91234822336376              2.580209422111338              1.1890846057156574
H              4.171320098998991              4.657382262075201              2.621510324634614
H              4.283261112150361              5.019854540707035              3.236449231456695
H              2.2927500164657064              2.536113847581687              3.717108009554494
H              2.9960185885984307              2.3463648936290307              3.699691452609775
H              2.948861997971758              4.391681268288487              0.2220495497029966
H              3.019383539335655              3.8776359266299862              0.8049448051851624
H              2.306163665276803              1.801861126517386              1.0336299960921147
H              1.6292307070112644              1.540078231494593              0.9212732293792498
H              -0.11197137420601382              -1.1286281369469164              -2.051166788267999
H              -0.6721258640757449              -1.1016178077465524              -1.688965247586053
H              4.639714402860802              2.093385179649702              0.796093517415882
H              5.093343425507966              2.526824739575504              1.1239354873280853
H              3.7699814952417694              5.039579909276492              2.3561213795806606
H              3.901488165315604              4.829293505326026              3.083010028570964
H              2.3722684050512397              2.3281304209762452              4.052299835902997
H              2.838633252503404              2.1828118906392047              3.4963396836377147
H              2.7408008896649023              4.1754620205036455              0.25227370330261495
H              3.1349626656005416              3.8630598076177725              0.8143559882918593
H              2.4749591907169073              1.4491135687609935              1.0195023934654097
H              1.7736685219006376              1.4227976495427808              0.744339506272951
H              0.35558811274343427              -0.9188521273635863              -2.140261474962027
H              -0.26699555523995366              -1.2960315619788667              -1.9007052409439782
H              4.935395476596888              1.903574126244157              1.2089344645347173
H              4.999500774699444              2.716660952290011              1.2764201825757242
H              3.706839162680777              4.814694911198237              2.3563736400104163
H              3.991658702837893              4.699323982160028              3.0142250432367947
H              2.5555330797887836              2.8042693273669173              3.5735815715951147
H              2.8170858731287782              2.085536541916168              3.706465394910069
H              2.5574318913157916              4.274778318106737              0.4126855808330486
H              2.9411194519897332              3.719977880516092              0.2687518942462749
