72

H              0.7115465894879089              0.999384683686444              -0.42214375754174743
H              1.2298866724258595              0.8989477671455816              -0.9001084834416249
H              -0.9901359919207436              -2.4228672594184304              -2.3099301385343107
H              -1.7448600184355723              -2.625165947074984              -2.2700230094553957
H              3.6802304895800737              1.1468844611592661              1.4042332575610728
H              4.130838681167865              1.4326813147687882              0.9245818459023796
H              3.5931902333185346              3.8901323138484094              3.1390673331221186
H              4.244186879538718              4.1532361372836215              2.823043930047108
H              1.989806211321498              2.279404912258845              2.742031815753689
H              1.4444185112428016              2.311352688743308              2.2830679298031007
H              2.811641668639779              3.586846715431576              -0.07095947079652476
H              2.183336777922332              3.785859717545609              0.29052997128587166
H              0.9421028647115132              0.7421735543864143              -0.5244335216097971
H              1.5880558578054742              1.053185000411968              -0.655928252795065
H              -0.9886710717647363              -2.5914552930886328              -2.256100456588466
H              -1.7598755317171237              -2.6884913556597443              -2.0153791739425717
H              3.7914853620645768              1.0213236832189514              1.4658605746291822
H              4.444003920634689              1.340769164287853              1.1098162381664305
H              3.762374208229322              3.7299336091369106              3.14080480344313
H              4.402214043018947              3.9975851539359284              3.0159053277961387
H              1.7091620656436284              2.0370391053492303              2.295601280020616
H              1.1679246771431189              2.44586048161181              2.4727109824657236
H              2.6262516444313206              4.232565493378646              0.1353210617097464
H              2.2083068855173935              3.8907093831889337              0.5764680292824915
H              1.262433419415486              1.029095747723946              -0.7746775396209035
H              1.4647582132590207              0.9821999935375718              -0.07631279419956877
H              -1.1157104709638406              -2.295206575510804              -1.9547720933805228
H              -1.7222063380561259              -2.7415050547809257              -1.8680439717372113
H              3.9066902463577304              0.7680153264714366              1.4287185872012684
H              4.35511724702424              1.3256817043215325              1.263767030073979
H              3.9852480912342974              3.5654072889565946              3.2668022264076373
H              4.405378547230745              4.171626364358888              3.014698487167506
H              1.23115336463122              2.0493143546235677              2.9005163325725634
H              1.279991397958688              2.3431455687815297              2.237858848382653
H              2.4636857848904783              4.128464342048269              0.32566899476193406
H              1.9836300619958613              3.6196030801607026              0.12792803560731866
H              1.4894579874337412              0.712462774913978              -0.7585622297854807
H              1.536101163842763              0.9967707153651877              -0.04998984576988297
H              -1.274315372103709              -2.377245443397986              -2.0082243850304673
H              -2.036113633920796              -2.4804909644783835              -1.947594029400887
H              3.8291588572275117              1.1301998189992086              1.3350191841237071
H              4.443096135622276              1.365807683086857              1.010864853357135
H              3.815978395350745              3.930232067351289              3.1225904103734323
H              4.483143603761777              4.13444027054174              2.9120714601370734
H              1.690641952668774              1.919752627203966              2.7046608983631173
H              1.414126752444984              2.4319323830625637              2.128453059480171
H              2.7356743682652125              4.043252294882059              0.25871608528792867
H              2.0830479363678385              3.858908952653927              -0.09743721123529964
H              1.233506484838528              0.622907190346257              -0.8095877822109471
H              1.4479342825081354              0.9385115909760531              -0.10773270062825163
H              -1.2041775347553052              -2.3749163064667056              -2.188783268155416
H              -1.9427398952219428              -2.5219790791435988              -2.18442072858628
H              3.904457114265827              1.009331028851615              1.2761702963314465
H              4.570738013210777              1.3572667458200012              1.2086902669617416
H              3.664266043034738              3.5676243764895608              3.015391217191812
H              3.958242831340308              4.207050029617543              3.3107276366690592
H              1.3940270542085413              2.0639598575574682              2.8428366410094665
H              1.2132935769667768              2.3868635508642795              2.2089049546643658
H              2.6727362213810495              3.750672101943199              -0.40659364289518013
H              2.19090929076625              3.74432510388502              0.1230224197487088
H              0.9304597967519379              0.6787469258622788              -0.47682124849148083
H              1.6736996671503976              0.6171177300508903              -0.44842274111086505
H              -0.8981672272319038              -2.4313121481147015              -2.313037996956905
H              -1.5828335061843162              -2.675967094024438              -2.2299852500832564
H              4.040007477862523              0.9869840017242817              1.6113178036514204
H              4.510956227474235              1.4288574411364876              1.1707364860043579
H              3.6221100945737095              3.6854366679199284              2.933027424874469
H              4.023837474737902              4.318728173176707              2.9775121106532874
H              1.8007609226981205              2.34567807679535              2.836164627846605
H              1.3976884335258692              2.3248863709832563              2.1221164841711735
H              2.733035637740185              3.6098495093989116              -0.21588953830538976
H              2.1455427339489472              3.777378839107751              0.22624461946174057
