72

H              0.7675161917208427              0.8920945958878064              -0.4950852202945857
H              1.5025616432598543              1.1115316980424086              -0.2977086788895076
H              -1.560808574315067              -1.4600794355243454              -2.342090199631688
H              -1.7852352335467196              -1.629996904559878              -1.6873663134134473
H              3.8516915235174114              1.4169506313788887              0.8044686507874147
H              4.0171073945745              1.75381438262502              1.3931474780265733
H              4.214702698854989              4.204516504805515              2.6528199817952767
H              3.6488761568630026              3.982386855445258              3.0650646897837777
H              1.2404996531231731              2.1644784120505696              2.8424413706027964
H              1.552069233606513              2.1319301182546764              2.1137720268396327
H              2.1001787559287974              4.072626030865731              0.2465378100516833
H              1.6991777649174746              3.867314254018251              0.8545744597048252
H              0.8870567772953029              0.9529869712720984              -0.23794703047087848
H              1.4559004999391187              1.2584102787242173              -0.4695011125524061
H              -1.4058630993786772              -1.5562011362671055              -2.359319963786271
H              -1.5181830716512792              -1.4484766181251474              -1.6818333913161738
H              3.907845532554351              1.3241058628037687              0.9374162760507624
H              4.313716361719787              1.9134241148470008              0.796552573017193
H              4.17391896815234              4.511742016471674              2.4420493672896666
H              3.8294287650782173              4.039108823544245              2.9091878500989337
H              1.3017959036590019              2.304656181479037              2.7714173684346677
H              1.9232610010952442              1.897240332364865              2.5191640548691003
H              2.2897718338857906              3.891285325662381              0.11236055066357688
H              1.7725207449091007              4.056654271159607              0.6229900271760123
H              0.8783707167927728              0.7000347455002209              -0.5269190356157362
H              1.4051176080913084              1.2364302534819147              -0.4207526798448286
H              -1.4568950456782148              -1.5829574741518497              -2.4797637584610532
H              -1.688387669050013              -1.611242769508451              -1.7963005480189647
H              3.8030728131407336              1.3254240753674185              0.6121558527117047
H              4.149919853685959              1.8709965568388194              0.9157215431276947
H              3.928308039205423              4.389684141280227              2.553532694398073
H              3.639754052545136              4.0194266365209455              3.0868751262539846
H              1.3181759522465102              2.3874709692873406              2.6136441310701284
H              1.7828580849668993              1.957269262281475              2.890273739991956
H              2.515120442146313              3.91657365773212              0.1399475902264943
H              1.7880866566591533              4.018007114020746              0.427825378333275
H              0.8980585580432273              0.564091404480084              -0.6180290040770761
H              1.3316080009368538              0.9087628552652873              -0.08092747992633798
H              -1.478338521719137              -1.7414328390301228              -2.564747319099264
H              -1.4361433422317855              -1.9275692595142981              -1.8544444318804694
H              3.839421274872825              1.2496728656443368              0.9854106704910928
H              4.396693476623052              1.7973087265705192              1.1281431204865728
H              3.976753184302276              4.4581790002133665              2.5436294919004068
H              3.6222636671296002              3.9915639111267756              2.971982353760936
H              0.9883338456198606              2.1345855926199175              2.747747391718288
H              1.80780798345745              2.1543892573184924              2.655678442647615
H              2.3612421311703007              4.148570675373649              0.4504416739567159
H              1.6672877853150254              4.127004217180073              0.7222536295573613
H              0.9219560372348852              0.6286669596280379              -0.593578816103133
H              1.2980995503240653              1.0157754950565583              0.03764584054008678
H              -1.6271257047812897              -1.3724380651664423              -2.3013390366824447
H              -1.5842003484861158              -2.0148566259509746              -1.8673781095182416
H              3.5314191535029993              1.2974311897428839              1.0617764691106701
H              3.9048907160392865              1.8995235521787837              0.9570456678907376
H              4.051423869598885              4.535596113521955              2.4115635784461094
H              3.8846231106978357              4.099175542045248              2.8996101275987467
H              1.4600489948359348              2.2449541512366307              3.1128164844118755
H              1.657030528021032              1.943318288346981              2.386832674938165
H              2.204668002519774              3.930239573169638              0.6530730632318111
H              1.567565055094379              4.14151269004106              0.8719084832553152
H              1.143624445978635              1.0123110701824933              -0.6027828303068429
H              1.2178071827601828              0.6531479052252296              0.02568708168193385
H              -1.754253352700583              -1.3962413322389486              -2.3593344449756946
H              -1.9435305581852667              -1.895062918895998              -1.6806755100819504
H              3.4969044963441336              1.3924859155897142              0.8730577400116522
H              4.040682713408688              1.9910516741051103              1.0239107055965588
H              4.078125148538243              4.557228325237867              2.5014379322129847
H              4.012799489640557              3.920194975923942              2.8267303083115243
H              1.5412881471034268              2.086207251933208              2.7520417289497416
H              1.7385464294167894              2.1342211033213823              2.1090869838844593
H              2.317380898652495              4.211924789321159              0.7716502526996383
H              1.637732724699068              4.39674995622414              0.9176061447427035
