72

H              1.3180673208940068              0.8879325101052455              -0.3932257436872125
H              0.8661569259154208              1.1179079765520041              0.11757182839670771
H              -1.1247747578305738              -2.2931644302774092              -1.8904232186627419
H              -1.7145352298067753              -2.7404238901134828              -2.334459431124957
H              3.9381325359537382              1.5284593476073525              1.5021849548117396
H              4.349017362411514              1.518339835934456              0.9092350910049625
H              4.153455615489724              3.674675832612111              3.4344220552264177
H              4.397239658549023              3.9527518874771697              2.7952400707428757
H              1.6220057714372624              2.2098153781915846              2.7255133644656935
H              1.0966345061584308              2.4559078900851827              2.2006478614538656
H              3.02016328966396              3.796035114204286              0.21133989739344708
H              2.325290580865862              3.5506409935208296              0.0761636241306256
H              1.2182255286710597              0.4803148297058476              -0.037930217418506135
H              0.8451387557785597              1.1676017222895112              -0.20386441074280137
H              -0.855829197092325              -2.531395832470562              -2.0395587558534714
H              -1.6108838223149957              -2.7038812158012506              -2.314238169867532
H              4.076216791833728              1.43790595141435              1.5969803227342136
H              4.69885666482125              1.7156382415304843              1.126401027574745
H              3.955817235419152              3.4022055894964938              3.4026511115907487
H              4.113086651364207              3.834564362899623              2.86243228049043
H              1.4916994543001547              2.1618296854308094              2.275591890083382
H              0.7364979491268043              2.340140414465866              2.2947660521677213
H              3.078104390914485              3.7061184076410347              -0.11482694559446574
H              2.6260067412692765              3.5969286873498056              0.4367152687795789
H              0.7806090229511556              0.9046762223742365              -0.49276949310426915
H              1.1870587666611399              0.8925407287002328              0.08746097687913408
H              -0.7927012728318825              -2.548556134930278              -2.1094698891016037
H              -1.3104610433929977              -2.914124983782011              -2.4387529515671504
H              3.8784771672805394              1.4263074026657654              1.749520717369296
H              4.430722067470954              1.3811323637892576              1.2630832569725827
H              3.8796706675412285              3.367362530159878              3.3150881550880267
H              4.032631871391406              3.9428643618819637              2.820681736556105
H              1.6349456247217              2.144894495988839              2.4603771817767
H              0.9862757157674342              2.4155600771055155              2.1613956764713325
H              2.9249299947483656              3.145069189178789              -0.005126468368895696
H              2.4813355924295504              3.5126459859832586              0.4424886080065027
H              0.5495621058325868              0.6015118339483676              -0.23537342392347774
H              1.1607491114357342              0.9593821690431191              -0.1929100035345018
H              -0.881113081247366              -2.7156608200425723              -2.1321243324964336
H              -1.6307784554137719              -2.9057073473700985              -2.4217709648378825
H              3.6502334388687014              1.5203221348723126              1.5788862591680386
H              4.243773041228441              1.3955670770835975              1.134697207954732
H              3.8276830597643583              3.973719264683955              3.242102263829941
H              4.25396808375124              3.719255381609768              2.727343507941997
H              1.7124333256344213              2.199352716282136              2.011750813295875
H              1.2475762774860821              2.2610012964488337              2.5884597851556244
H              2.932107956337495              3.5255830551497698              0.06524111023826931
H              2.398412187842285              3.6072002399332552              0.5674679566831885
H              0.9047680663193635              0.5671660118279828              -0.30568767271936903
H              0.7972583281573881              1.1982631954026435              0.08574762847065143
H              -1.177225877272783              -2.711108717456277              -2.1994619230990224
H              -1.708776345140018              -3.1133090526919465              -2.426765595629354
H              3.8482278386024773              1.2551571588818942              1.4788096878645893
H              4.57247785294938              1.2327515241253757              1.340299493417386
H              3.8284483520494517              3.6591508833298807              3.471301147285901
H              4.231955800758148              3.9114634991332733              2.965468270018426
H              1.3492587868135317              2.0080292210795934              2.288980926342034
H              0.9375304910381757              2.448814455554984              2.536382715853103
H              2.753443114926336              3.8777245041756263              0.0839367650943302
H              2.2004445819189904              3.6534583692061324              0.4678059060788956
H              1.3487270488705319              0.7382692940256048              -0.4410629794792547
H              1.111615094937489              0.8374989265402176              0.23776427902273878
H              -1.011492518858466              -2.5313708617180377              -2.050031637810756
H              -1.5514923284643978              -2.9679783657458847              -2.1837471953662826
H              4.1433429367069285              1.0632828415568367              1.6349081497806621
H              4.657573583379021              1.49438415808825              1.1253208428006893
H              4.07759185520043              3.6535487109493436              3.4594772374359852
H              4.212994887267751              3.9697497905668953              2.7684599008474207
H              1.5873087790604432              2.2117259806873015              2.4346134068409424
H              0.9087552246669428              2.595690342195418              2.342764074938318
H              2.5772998545850236              4.175852856039836              0.3680489291079845
H              2.1973102097370987              3.5792680572522655              0.23162466054571035
