72

H              2.329706761444654              1.2558222462424935              0.5355649739362895
H              1.9263664250749466              1.796095210587853              0.8288276667072921
H              -1.2775103340116734              -1.298236739954502              -1.5503014421805656
H              -1.2657154145023315              -1.7316217179035396              -2.3305170953074756
H              5.073837238413762              2.5570142391298294              1.3013890265325576
H              4.916875147537795              2.4244020067614462              0.603791330238324
H              4.756827759822373              4.542786240287486              2.9538206005292893
H              4.540532725997194              3.8781094521598294              2.9273928736303456
H              3.3557146684788557              1.9576164197339123              3.5564162550486698
H              2.7500083140085154              2.423435522942608              3.3321252795412977
H              3.22967990474091              4.709805787125251              0.6353895086995852
H              2.636226011616784              4.621196119817919              0.21333548689520118
H              2.4684605906477857              1.4011275203825238              0.7644785868380752
H              1.7694553664759256              1.7109023299040955              0.6634398165909751
H              -1.7074065325398609              -1.4098730336526395              -1.9097179992713418
H              -1.453273426104074              -1.6652469580875287              -2.460492758548846
H              5.302151220894603              2.4067458170589964              1.2334251078024234
H              5.068569475976157              2.498428227777329              0.5809961153551367
H              4.437897323667857              4.848844989669947              2.8602576294538054
H              4.497592286901565              4.048502756996655              2.935956799891512
H              2.971983230057293              1.6440509110616202              3.745409364959051
H              2.7622117364249803              2.441556652988426              3.723221842586281
H              2.9134713731223365              4.639021530053891              0.7171906510050078
H              2.6725797409750083              4.273451076181104              0.11937933418413067
H              2.644458902678255              1.4597190208588773              0.7299993929106013
H              1.943932878164245              1.2742780595301264              0.7148102286225106
H              -1.488015719413683              -1.1930485485546047              -2.2301234023876533
H              -1.1905142789414733              -1.6794852680925858              -2.5760418685678093
H              5.207007866447112              2.2880362783767794              1.2049859026981882
H              5.182402424662949              2.6940413360555198              0.5799091310503145
H              4.427358607118282              4.831961282517255              2.984308577086846
H              4.4881531654480815              4.139533508290582              2.9651610028254525
H              3.0354415198171645              1.5779016736877918              3.6114996051952577
H              3.060908574020187              2.290720005377758              3.646564480452559
H              2.9699074704266866              4.252047569966737              0.6156350697938301
H              2.3181741660463184              4.141447588142297              0.3751890794724014
H              2.269682347897111              1.3941805318406175              0.7122216609838348
H              1.812059967876653              1.833091386897295              1.0281969554597419
H              -1.147195407303602              -1.1459748283234006              -1.869912304279251
H              -0.9946271725740732              -1.3375457821431325              -2.565384032880665
H              4.714722414782464              2.5575618577296972              1.0180468104990832
H              5.145059136394438              2.383486626792447              0.4186700661184018
H              4.252256721776252              4.845252551670454              2.9907832599371362
H              4.746040317900526              4.250080303144737              3.060712266490819
H              3.3288271923701056              1.5667371639929943              3.695896467774226
H              3.370635085222028              2.1171309908949314              3.131779366716811
H              2.9828370437022143              4.385043223579458              1.040479083487972
H              2.665238259520105              4.314253745788238              0.43162088229223455
H              2.2471811789408775              1.367656092333018              0.7825458241816623
H              1.775165073737831              1.9775675171723046              0.6352694049324932
H              -1.1775906251273216              -1.377001609707884              -1.7155654031397165
H              -1.0806399496181307              -1.276377356059875              -2.4002023052087416
H              4.850858212265706              2.0864221863376953              1.1119864239101764
H              4.822652072083402              2.1996004747470295              0.3612059009233933
H              4.252745994689674              4.631549205507718              2.8068079839176523
H              4.550568554670038              4.140134918032984              3.3074442459195534
H              3.644689531162866              1.6819516959017864              3.729367090336582
H              3.2213645071779986              1.9311484898105837              3.273731305961571
H              3.1142705688752352              4.573304429987236              0.9582088995091232
H              3.117239995344424              4.42764990517066              0.2102815632841173
H              2.2693123578857413              1.7615761219452428              0.2695170753305903
H              1.843475191056519              1.8594903361267092              0.8363788487867273
H              -1.1212081221539016              -1.3661643382654776              -1.7108368483682814
H              -1.3316441664393728              -1.3639727063648575              -2.4691387335096318
H              4.986821999996231              2.0363202513258374              1.5288492216972747
H              5.173883994003006              2.367187507403629              0.9381678848705512
H              4.486985510892164              4.641872369986538              2.8612608017239953
H              4.608911991494395              3.963061637386812              2.761076179104517
H              3.6145233045805307              1.6651021599836482              3.6413235712255827
H              2.992184217888713              1.8779843206415126              3.217289329778448
H              3.3088212937908996              4.535373138158042              0.8985947217019393
H              2.8132980236081275              4.370304565213996              0.33029430353888156
