72

H              2.188835445720098              1.2730530535959375              0.7600403246981197
H              1.5951215919016861              1.7002816800684584              0.8778459368056246
H              0.5169887677645163              -1.19978233331859              -1.9545571226638923
H              -0.22983450724229731              -1.2866522424070759              -1.770345044773288
H              5.09497316996754              1.9364510679941727              0.947802938169306
H              5.0397686786865314              2.531538386614194              1.438996287257987
H              3.6826374811584777              4.7653077988263615              2.547928134253369
H              4.1292449630477766              4.6261049463441255              3.120943291003316
H              2.5699579534131862              2.5489646781183732              3.7816926376157185
H              2.4980996916383584              1.9139608544516473              4.027937380151081
H              2.9093358001465544              4.390765961423654              0.47563187383579847
H              3.1810914947889217              3.7596327740736246              0.2320498699214909
H              2.228501465361585              1.3380162294171674              1.2613180481750317
H              1.8337016830761959              1.5709539264909227              0.6324244970344741
H              0.44019947081775446              -1.201229556803121              -1.8414394260602969
H              -0.34669866420087997              -1.2712850479114137              -1.8168398735109046
H              4.972572231795577              2.362726618046681              0.7994520431377898
H              5.1616134318209              2.7359152289046653              1.4072961907614319
H              4.111595607547787              4.4865313539904825              2.4037921234368866
H              4.149736628275454              4.857175594977354              3.0585217708554633
H              2.2902874780299096              2.552468321535469              3.6416990589916867
H              2.8545192923903695              2.529423948889281              4.2140974058353065
H              2.673195229409326              4.391872626026162              0.5890853091919085
H              3.0562678003138384              3.775938031008346              0.4364380772125656
H              2.269997131947071              1.2738201615463816              0.9281782092646206
H              1.5644425411396246              1.1347530980417806              1.1390368596024119
H              0.1317718253863132              -1.1281217978820028              -2.021113144129513
H              -0.46797724271127344              -0.955094824889011              -1.731957790807145
H              4.625594213134215              2.463881117474266              0.47836556311044554
H              5.067466514635415              2.3296999796254494              1.0493338150316618
H              3.6582463367763958              4.520217538005907              2.513389628314166
H              4.0370315386501785              4.789875605397574              3.0727872112171495
H              2.398819035938065              2.3633639851026875              3.6354703010864986
H              3.1370698704567306              2.2455120416484533              4.007664056552028
H              2.4709750026676858              4.377206880940631              0.3891278756799977
H              2.9185515282972245              3.777666137781358              0.47554379044275313
H              2.248771432569267              1.6799373882280784              1.0434674368175711
H              1.6052643301059766              1.3209486227774054              1.0762211292333408
H              0.34933811112024565              -1.1680213300499973              -2.096461105892517
H              -0.07377214964050735              -0.7989899474713928              -1.7118182954728929
H              4.740084643703304              1.992310298230711              0.737338193569436
H              5.133703014258372              2.2441405687282185              1.2186272264963465
H              3.6328011869818697              4.515625438975441              2.492690602785383
H              4.01414923807256              4.6213533354099114              3.1192356052755947
H              2.4193295596934945              2.24776542393019              3.7090081893252607
H              3.1608762840700773              1.9841908555534484              3.8345511741356697
H              2.6445127370439856              4.550699035084389              0.3470707993645228
H              2.9746293687515917              3.8699296742907507              0.4405521307451872
H              2.164559279234978              1.5780354005251889              1.2562293789932995
H              1.4336414660875327              1.4996665211399993              0.9540485318592544
H              0.5415001064940177              -1.013738745377895              -1.8862829721416663
H              -0.04234224639973946              -0.5872629983273637              -1.5010735149560706
H              4.799972102564524              1.9844623266149148              0.7612407536882008
H              4.911341415222528              2.1926711929997604              1.4774937723376667
H              3.723314384997751              4.537722156310319              2.693351715603731
H              4.351951569975738              4.8150022709125615              3.077749586628545
H              2.9265794293165714              2.6149875201304176              3.2927477780782635
H              3.0983407959917937              2.0442164616548393              3.823218762013792
H              2.6646953885715123              4.649572944682525              0.3767168954761233
H              3.1519851136456096              4.021305581897925              0.29900199956868073
H              1.9652403527840336              1.5835657870643818              1.293188455961131
H              1.6961672231434908              1.8851087828288187              0.7340075286804311
H              0.43920216771858017              -1.1707101794708707              -1.924780933740167
H              -0.2320134918405334              -0.8426525056669586              -1.5142514793278932
H              4.674055359598558              2.172157459419184              0.59834688140173
H              4.91068432110015              2.2662590619079794              1.3124638677351903
H              3.680142100220447              4.730257261409659              2.671877601242571
H              4.2525750161764115              4.8378031411341755              3.025358914272681
H              3.068176531095979              2.5493029946065118              3.6822864082283226
H              2.8577745860028716              1.7380273129756076              3.6285930875388495
H              2.924300723712677              4.739273864924127              0.3531488621712038
H              3.179440585155009              3.9854909132321814              0.3932585773479522
