72

H              2.221120718235125              1.4392768164104697              0.9115052683036438
H              1.6796555407363156              1.9332142080912196              0.8471153024485925
H              0.37870685533629744              -0.48170595124351395              -1.5757394823676245
H              0.13754627339303502              0.13773675822532055              -1.9391310934267534
H              5.322879237885816              2.319532058510892              1.4082912218619006
H              5.011918030450711              1.9612482628272918              0.8515843652180317
H              4.131771544630957              4.503059760266721              3.317717534394884
H              4.032855660016084              4.060573855297607              2.750024447125266
H              3.231564351100606              1.3003473100128624              3.3363258957353783
H              3.1621541289135062              2.0344933062920783              3.254308086472696
H              3.032175992620472              4.093804486843942              0.44033678841806706
H              2.7793961639961013              4.82214683553812              0.6341185510927598
H              2.164437237107498              1.6698140955096532              0.6122347286867936
H              1.5291597088226814              1.9153206739310484              0.9970462451738197
H              0.348945990170712              -0.5249437007584286              -1.8197295231336557
H              0.04816037148938169              0.13228652325355872              -2.0970851369304175
H              5.638765083192362              2.4422898036559686              1.3436202577440275
H              5.11221910153485              2.001802347225332              1.2770414858372001
H              3.9267006723711              4.923712677437947              3.073976280830194
H              4.219510969130635              4.330517042348556              2.6284678759142506
H              3.315000846154881              1.3487314463493465              3.030314738940702
H              3.373024342832543              2.170693042473698              3.149194282693464
H              3.0714751850530466              4.313823627768529              0.7181535222630616
H              2.8613443606478577              4.981013916027266              0.3609568400723257
H              2.329884356462147              1.6838891712511905              0.4146617887248649
H              1.6843006303382217              1.6325783194578485              0.6692478652214824
H              0.3825510458501099              -0.4526486898464303              -2.2949005643570737
H              0.26682609334709967              0.16177157390256872              -2.179498655007245
H              5.487702170037068              2.5325954112580162              1.1964177665568336
H              4.911188463910143              2.2079064325498345              1.050159869993828
H              3.839099862200474              5.044180426072336              2.914217071423845
H              4.057811069263254              4.304889055093949              2.8418236484478094
H              3.299559006519737              1.3002381414978255              2.9692124552509744
H              3.3874606722447846              1.9826114487092612              3.203265266316248
H              3.1040056572598815              4.008434924947132              0.5403627128597077
H              2.7913988201044915              4.73729358412542              0.4861454764893454
H              2.250767749010275              1.526442161500457              0.950168696388762
H              1.613969323713209              1.7190938069402135              0.5237342651964407
H              0.5436455988005764              -0.5448774249775294              -2.037551338755476
H              0.6828404364012417              0.14411310813838982              -2.271415744754538
H              5.566495639831051              2.4248121320413465              1.5168101414986115
H              5.187677932985453              2.4131127781383896              0.8998210289623602
H              4.370881625849554              4.753690929204694              3.0345502432722156
H              4.010006049421231              4.194073658843048              2.6948997507356394
H              3.278071146578447              1.161421055044318              3.3552901658076495
H              3.3634532516482585              1.9145601735417401              3.147206518106057
H              3.1173786253741658              4.099674185893983              0.6489616459485876
H              2.7891280535351926              4.734540078679949              0.7959478750679102
H              2.227517651771024              1.4262325497342532              0.7212050104866725
H              1.7916861036642264              1.6789514321575896              1.2023888130515084
H              0.37983987941912234              -0.44488245854162806              -1.6714073370632945
H              0.5698581924884317              0.1171768773416284              -2.127319084648396
H              5.606244147050601              2.472047123542482              1.3550907184409775
H              4.988908059575146              2.3861981455581134              1.0625546004582238
H              4.393842955181024              4.5103613570502725              3.154790978158267
H              4.184826546020547              3.8952618938925987              2.722191202359683
H              3.4060078102223685              1.861967069641667              3.5226944228120707
H              3.330669657156558              1.9729320881773382              2.7219415687128734
H              3.290667963372982              4.045615044702395              0.35592259672355636
H              2.8242369176620454              4.4657190307501295              0.7713038979455863
H              2.1209965565928948              1.4972860557988932              0.9502816099123571
H              1.7495739954162766              2.116443606846741              0.8884375162308784
H              0.02696491547376094              -0.4323143189316837              -1.6690162382863771
H              0.2774414133978575              0.06043123124103163              -2.1165202131223992
H              5.417640109928786              2.5705816188901514              1.3524062439665514
H              5.230084990259541              2.0166125473067984              0.8195204772701472
H              4.111512725468085              4.5650909510628805              3.077153317541487
H              4.283815951686007              3.8791491747343585              2.861567208247216
H              3.19745523975877              1.2628998681203922              3.334511235884836
H              3.4371849162081447              2.0119811671369243              3.073576975997345
H              3.1905149528498398              4.0301955638643765              0.3656515401222898
H              2.849917869960582              4.546500906769518              0.8255565344598871
