72

H              0.7266082244773306              1.0027054575065253              -0.43745261963807447
H              1.2311293879169907              0.8782513402369316              -0.9121115030842013
H              -1.0146808064760433              -2.423612546385171              -2.3298824744485533
H              -1.7292321989482566              -2.611323392832678              -2.276219968348259
H              3.7130329570989837              1.1373132488410183              1.399584277490366
H              4.1494680180784895              1.437493014292928              0.9137266774790327
H              3.5962873539356885              3.886722695989026              3.1317702467120565
H              4.2265647220136255              4.171485901370284              2.8351716348193934
H              1.9852002492600114              2.269429346005361              2.776786570981133
H              1.457291461859464              2.336531661598405              2.2417683796134513
H              2.8130015985108456              3.6095390858594434              -0.09022035563960787
H              2.191287038383796              3.789412821890144              0.29610242701471456
H              0.9588064546821085              0.7230083555327778              -0.5391005032354469
H              1.603372212380121              1.0785918379059611              -0.6582814601472822
H              -0.933787953938753              -2.5773800894132037              -2.2570000733531583
H              -1.763693325594968              -2.6595469099726037              -1.9906252951989252
H              3.7636395068993154              1.0186930958321851              1.4661682340642082
H              4.439692936555921              1.3542966966309014              1.0769081746398423
H              3.773571963595915              3.7059944639256948              3.136490996399533
H              4.405890705446195              3.994013765644298              3.0089900159472354
H              1.7456622156372628              2.0438937664155903              2.303674538187252
H              1.1505722209731852              2.4518221429521785              2.471019146199872
H              2.62421709982367              4.237186344170124              0.141577842473444
H              2.2209325934899775              3.89384749529399              0.5799514969332435
H              1.237518292907962              1.048601706684546              -0.7487545459561773
H              1.4785763778965493              0.974099325899767              -0.07376192707431693
H              -1.0911948993730418              -2.286368460857706              -1.927514938607129
H              -1.7390129658328246              -2.7416477003293434              -1.8583167089800203
H              3.889073779075596              0.7809014893898564              1.4337841111173568
H              4.341316758600194              1.3254108050149167              1.2852692474777605
H              4.005208012348768              3.581244085931856              3.2547811014999555
H              4.416809757930368              4.14182078960868              3.0184880482537593
H              1.2201716128717464              2.0378161143012554              2.9106821719196985
H              1.298843965555957              2.3215178938768024              2.2334106307094013
H              2.4806452507515058              4.1069538834390995              0.3448594467630049
H              1.9926447919159438              3.6228386035577205              0.12474984585848825
H              1.4430321399350916              0.7106597742405512              -0.7485431213303771
H              1.5391698252545485              0.9951673417341363              -0.05686219633133454
H              -1.314691015208124              -2.3950447465526694              -2.0203522384010157
H              -2.024743449036924              -2.483049510664032              -1.9436719716979216
H              3.830086906532331              1.1108225552047173              1.327916153043474
H              4.4531941842734195              1.3667430451132478              1.0290058472457673
H              3.796848548490151              3.935958085300662              3.1123764498116073
H              4.454948893622839              4.132160127507224              2.9204491217058313
H              1.6806171545263477              1.9075415713104327              2.695550356552266
H              1.4163222207166144              2.4278031723848463              2.1215291750868364
H              2.7345860660179926              4.061899705116651              0.25349328133293725
H              2.0679864781500767              3.848760126815731              -0.09950810908009403
H              1.2341552298192338              0.6254650889512473              -0.8127693568764472
H              1.4496418108215003              0.9495716035314803              -0.10542404709151279
H              -1.2059854365625768              -2.3593610036250983              -2.205127674728999
H              -1.961987850703231              -2.5377626193818474              -2.1846486187526866
H              3.8875902521637875              1.0218279112793998              1.2742611281494958
H              4.547260230469712              1.3129521948606981              1.1949290181684413
H              3.653524067895123              3.582321310879972              2.9928905800692975
H              3.9548930302959984              4.2125826152268795              3.3266542068236205
H              1.4232074982746505              2.0688153819697135              2.835387970622822
H              1.2244186874415548              2.3901411468054024              2.2188901785825643
H              2.662263556788612              3.7430028620387943              -0.40860999301209067
H              2.151625306231632              3.7597423917119763              0.1320730154881798
H              0.9309874248662922              0.6940201200896093              -0.47459926798087904
H              1.6538234248819375              0.6058383827175615              -0.4445026194060401
H              -0.9205067654322258              -2.4214838291297007              -2.3045140565246136
H              -1.5854845089277174              -2.6716394514882045              -2.233067936417258
H              4.051962330373701              0.9640208768309037              1.6031690897833426
H              4.513450954132224              1.449183872863706              1.1729445734758848
H              3.6238387011546327              3.7157467689219645              2.932237432934356
H              4.0293992911194945              4.322722016795101              2.9738320845584836
H              1.7817240722089909              2.3462630019361796              2.841475762461178
H              1.3977785897130781              2.3134841248479834              2.1516866517921533
H              2.73279429550181              3.616752662310414              -0.21901149367334052
H              2.1272495320461697              3.791745613721681              0.21785625314154167
