72

H              2.4560444093274216              1.4918651599272625              0.7684563243118836
H              1.721187935472031              1.6038999757627637              0.6471676978944841
H              0.11937930675634469              -0.2720915949971472              -2.0127977505618895
H              0.39898342443921514              0.24225032819083803              -2.3296757084029136
H              5.0264727640079725              2.217957722681206              1.2624061771696202
H              4.914118373867176              2.6976400055351695              0.708214715312471
H              4.488824248021779              4.5986701814558115              2.969289086038123
H              3.9265812096493278              4.253382947976697              3.2021405595794805
H              3.2710430273906552              1.5538769196682203              3.262327696554577
H              3.213136481821956              2.1709686423983157              2.953442560588939
H              3.019907888334393              4.562301773540925              0.17538620466411495
H              2.708256204550925              4.414339780119718              0.78024223735145
H              2.2979655079758867              1.7420440876169452              0.5813862115830848
H              2.1148651277349395              1.873627286452555              1.2266382522860613
H              -0.13029918432045542              -0.25880301148780777              -1.7278914927689946
H              0.23485194868370446              0.062009178409045324              -2.3062958888856806
H              5.461311116042248              2.3096702219839913              1.11792688542568
H              4.923869938242844              2.553047149316116              0.6664328934202001
H              4.533649056619401              4.551777597141702              2.95017937919795
H              4.058141923897089              4.013520471506834              3.1357439896808175
H              3.190072119446977              1.7769791194781757              3.3384832181591793
H              3.1945385252492              2.2024149945515648              2.7402422443446914
H              3.2454349710467874              4.364400499006814              0.20569093016088677
H              2.6466791291530756              4.491995593558762              0.6257758613825676
H              2.4269296400897007              1.7405425654771485              0.535465034388894
H              1.8803167087848933              2.0467155830028774              0.9953200822540553
H              -0.43240449621507293              -0.16938270346311204              -1.6888937132626554
H              0.009576699827687305              0.22369534131183125              -2.3169180789340356
H              5.124928489898642              2.274154201605571              1.1417302137610366
H              4.900410460711216              2.346308123885349              0.3890937939584204
H              4.1811535478705775              4.453108768022082              3.0128887282603047
H              4.081393343709038              3.7876954141127124              3.343684445606652
H              2.864085685708374              1.7549500401610703              3.3552649073202874
H              3.5781294050174943              1.9139734778796702              3.063735006318986
H              2.9530550945465475              4.249020804438524              0.05132196774148851
H              2.595300264409297              4.320689317031635              0.6998865554707179
H              2.256938886302391              1.8473483383192628              0.56801711596145
H              1.7868722827055379              2.290033605006572              0.9008534959452942
H              -0.06034975963089846              -0.19130543461693075              -1.5645723292260891
H              -0.050516274694506105              0.29896093364776466              -2.121185927603381
H              5.014195556359764              2.258221005231084              1.2022091261804742
H              4.698405159012918              2.207408470794698              0.5163408803023131
H              4.184866814657619              4.526407095481802              3.1800333217934265
H              4.136300673854838              3.7902785246850925              2.9025754978714047
H              3.227070125577261              1.3230452652715798              3.5819708036191296
H              3.2294266303281685              2.0064842138628616              3.2518846289091767
H              2.764452452118997              4.364446518303013              0.1266672022185628
H              2.7854733600548993              4.687095277152177              0.8178687004046836
H              2.209176651208258              1.8730000530350313              0.4678884113283034
H              1.5770207911524081              1.9007810222640562              0.8902035725216688
H              -0.1705713265638025              -0.24529080737391828              -1.8492111043823187
H              -0.03448066361060085              0.4450834858801395              -2.2054781343109715
H              5.24955137653582              2.282860456660238              1.2428612755102135
H              4.46934836659112              2.3447402638157375              0.9649844709186207
H              4.085943716848832              4.827726471566689              3.0413253007130185
H              3.9892849723620936              4.096727188120942              2.9693372793108783
H              3.22541670690234              1.5445660890841357              3.07956556760184
H              3.4812160037588704              2.174465928978456              3.1686822272486923
H              3.0591451432105665              4.257634523839314              0.18878451448629188
H              2.736917950268213              4.86933333291865              0.5511773657160026
H              2.298441828821046              2.1101357002443852              0.2539336716075219
H              1.7988879766459462              1.7371778655743964              0.677075965623025
H              -0.026815087218600563              -0.37572895104117165              -2.359543917519541
H              0.1252293687102015              0.4134431591521554              -2.2990541489653387
H              5.220047168271251              2.571201355929848              1.094626689277607
H              4.6405015713545374              2.3274477382657373              0.8154641280341586
H              3.9944620276543037              4.971578118971097              2.8842580140567105
H              4.030961369319106              4.182268593529438              2.968852090142956
H              3.144372960948902              1.3912655583982814              3.268742674060981
H              3.4175232621140816              2.1054114674540467              2.9296059484969006
H              3.2526893486035617              4.252564212758284              0.29118040608352413
H              2.7035074472314853              4.635938024728137              0.5546425745661622
