72

H              0.7630110732743308              0.8168957902573334              -0.5002741694847135
H              1.4276511318176883              1.068328195305276              -0.3611982210676429
H              -1.5509634159627756              -1.4624154860558405              -2.449444289476512
H              -1.7700388562658023              -1.6652364074362065              -1.6780015789614922
H              4.0048395509082155              1.3643480751084147              0.7491368601564192
H              4.055962227705739              1.779744594352091              1.3289320980913824
H              4.1758853161744645              4.178301192368998              2.608530807446281
H              3.6471693123207283              4.089429121140146              3.123785595836113
H              1.2771839895819903              2.1105188171747638              2.922786979181836
H              1.4418651919207615              2.1385879610350798              2.1266244107337995
H              2.130542655439514              4.126834988518388              0.18299449174536103
H              1.7578856113251056              3.9045128095786055              0.7976346106365928
H              0.8511000001378392              0.9785299708983555              -0.1435094617579652
H              1.4713804841679423              1.1615523014956548              -0.5124387970068691
H              -1.3223357051300018              -1.5445689907958302              -2.3686032417673246
H              -1.4639337623600988              -1.4726142350525104              -1.6421263326084579
H              3.8183652983394647              1.332901848682388              0.9324998770827901
H              4.277562441917171              1.9242163345885182              0.7723758840283534
H              4.235017290844524              4.414169575380012              2.4944791807223043
H              3.8456659195839213              3.9864605595835965              2.9010225192926384
H              1.3512007175072827              2.289880246227706              2.7589514739174867
H              1.9627533632901049              1.9548779112775134              2.5129770765660755
H              2.283318219650866              3.902755286720756              0.0715152818582067
H              1.840029027951731              4.079558737051273              0.6985545126215359
H              0.950593791325729              0.7385904805434748              -0.5796777850230903
H              1.4281782607485602              1.3033919289918956              -0.4230046727928646
H              -1.3838834964621536              -1.5975978676412812              -2.3593505267940023
H              -1.6743317767087247              -1.6549623800759752              -1.7070954934719997
H              3.802355605509473              1.3535519668031348              0.6447673007218702
H              4.096115778621902              1.8802632866429478              0.9858315750798042
H              3.9471011029430425              4.287194973273577              2.4505677693952044
H              3.719004952651887              3.9913145652624293              3.1506317336447753
H              1.3181535249738494              2.410330364681741              2.6360038061475586
H              1.752755381345419              1.890347792441765              2.9032145807899328
H              2.5764081449296645              3.9610941077700996              0.262779876128724
H              1.8139219504028317              3.9522345002020254              0.3831904151149146
H              0.9884635132126655              0.5802353590610028              -0.6505312335702462
H              1.3779111636275467              0.9012767116521392              -0.13184824788612157
H              -1.5491332062811058              -1.7914460446224705              -2.598123697236197
H              -1.5514003091552224              -1.9819879105946767              -1.8377855887305832
H              3.860382764204825              1.2653054938288149              1.030967470514116
H              4.411454364661099              1.6848028298082698              1.1141740325132148
H              3.8817100479187503              4.485971718336217              2.519009603365674
H              3.6098968161092713              3.955878077123555              2.978795326460582
H              1.0460966196091654              2.101551889095025              2.696683408149662
H              1.8295683604213735              2.171644480164065              2.6433557742550873
H              2.3929384749428935              4.145188235290466              0.4984954731566137
H              1.693032867519555              4.126490873962135              0.65969674964754
H              0.8112464861230191              0.6818647530687675              -0.5423292899891224
H              1.3695708492511471              1.0636879446377208              -0.034612872036801245
H              -1.6495084602789836              -1.4748850400771196              -2.3334129277525357
H              -1.6300907891288958              -1.965917610962063              -1.8859247619756998
H              3.4277320028397713              1.273763109899396              1.056586190663277
H              3.8638333791984327              1.8052131068035668              0.938835263515721
H              4.003670188210473              4.629485707448441              2.4272315235180115
H              3.8242918723442076              4.012255635427718              2.8836686377361587
H              1.5102047301556754              2.1769877001869817              3.0662849009064144
H              1.6501350896459694              2.0400723430591645              2.3474857923692722
H              2.154652909865481              3.925595789772978              0.5674160668215934
H              1.5300550608315049              4.1671869991912915              0.9204263365970832
H              1.20480633072741              1.0425498088014036              -0.6482978679788814
H              1.2508337603895316              0.6166625061585381              -0.04118636210323221
H              -1.7655113521981707              -1.459787383823022              -2.264464501225375
H              -1.9320670445537003              -1.890212367770915              -1.8282565105844222
H              3.563973964275466              1.3993668897884013              0.9316992720325639
H              3.9846279764943393              1.9331822552153184              1.056419400672609
H              4.096759477299568              4.598675664398875              2.443333966641463
H              4.020498363095189              4.004525146363012              2.8854358740075465
H              1.477685672063972              2.1112601038155074              2.7983002763890648
H              1.8152981039222928              2.095187405824599              2.103460328441151
H              2.3321954624301              4.174776742819036              0.773058237992787
H              1.6312956691769882              4.3882015958652145              0.8652429070045106
