72

H              2.310828504001188              1.671759384573897              1.3421916296856125
H              1.8140007917908958              1.597979101833092              0.7995463703688684
H              0.30306896896924423              -1.056626291768124              -2.0161947525340262
H              -0.41887558912615386              -1.0772754219096554              -1.9501530077708868
H              4.627117368108743              2.2738899250845206              0.7839430686424772
H              5.043098839227284              2.5521206165168735              1.382930049279393
H              3.8021943265082627              4.646243416693797              2.4967410753228094
H              4.291371123629605              4.828682600625039              2.980250497562964
H              2.752823060502              2.3734267103099014              3.4533192353974194
H              3.2898952759416686              1.9421909185521664              3.6519238233685214
H              2.5827344478657794              4.5724637192018625              0.36700927905455133
H              2.8189059414830195              3.8869314179901964              0.2761500524662998
H              2.200989057904514              1.4297577592303716              0.9874598575284749
H              1.5376559662150422              1.7798998224072549              1.17208182230992
H              0.4140996975029525              -1.1760550048005978              -1.9892702341660156
H              -0.3011710251802099              -1.0120743977163775              -1.7806802449388353
H              4.849862526334851              1.9397718105980881              0.7685072505046658
H              5.073900036766918              2.309897572976991              1.305645986424425
H              3.7093806616012697              4.672732462662648              2.764787136911301
H              4.331780862894198              4.634076069512796              3.159923935655081
H              2.7838772934408884              2.1211930940391936              3.4340116920760524
H              3.0162025467757125              1.5447854126699387              3.5598848249310837
H              2.9320478332505044              4.631604965893423              0.29139688588878293
H              2.7569305018754644              3.894524115220756              0.21711140198401566
H              2.045305591889825              1.725533973156667              1.25032826658473
H              1.6651748118870613              2.24579055894312              0.8872827479876577
H              0.34497325976991694              -1.31076481820134              -1.6210833512342622
H              -0.32389347551137687              -1.1068904179451837              -1.6489976298697953
H              5.028198594556799              1.918929815754371              1.0556260072234733
H              5.095592547701176              2.5485006549291387              1.3655559081454764
H              4.2994074169820715              4.587309973610999              2.609981985160179
H              4.38343304790934              4.729862041920425              3.322657405448369
H              2.3684458054025828              2.402890107155001              3.6859765958968764
H              2.931573175604147              1.880566783781404              3.774858466562321
H              3.1269664380779667              4.618362398134264              0.2958134161240877
H              3.0403888094858798              3.9214232564228233              0.5173893816030175
H              2.158252038665691              1.4731191349775612              1.2710919995688472
H              1.6648402976009582              1.7733851682540052              0.7946066452465932
H              -0.14701948960384778              -1.1502149608973433              -1.7353299401973281
H              -0.7702838187903804              -1.1178363440715187              -1.5743108937276227
H              4.812347463977417              2.1517884050046097              0.8607210564972706
H              4.8855655174604244              2.640699884046489              1.360507334120639
H              4.271939890799064              4.831721792605629              2.4783063739742834
H              4.239369562295361              4.960012027981135              3.2390951825470755
H              2.2987691885619497              2.5714711803663435              3.7949331246287676
H              2.9065797280697145              2.0963188454158              3.746278252575522
H              2.906996963258713              4.262950197810413              0.1792800405194039
H              3.1261110366548133              3.8973364981175997              0.7177067131726946
H              2.4340580388741877              1.552558496788365              1.145829030058644
H              1.7148171160819388              1.577595325151814              0.8108036485449481
H              -0.019452399076568424              -1.1487020772849685              -2.142667665672998
H              -0.7451472018220543              -1.3057513204787814              -1.7068181098390458
H              4.763635785074582              2.122078904807589              0.8286928821980355
H              5.17542102402617              2.724021529291156              1.0990749176878654
H              3.9402009998599468              5.005395662358991              2.365815357284685
H              3.932619702779531              4.803097958569946              3.106144625599434
H              2.2468677822296192              2.2154979819208567              4.020766791630895
H              2.7641657965121658              2.2902897790354664              3.484846380126377
H              2.766525580516276              4.249545532566301              0.25229730528262134
H              2.9534323981050044              3.7434606444343523              0.7840341042164386
H              2.406839172223219              1.5079051491390287              0.8798259853113944
H              1.6942643931397057              1.463726854558458              0.987908214144789
H              0.28058853713957643              -0.9804420498726819              -2.0036923222172547
H              -0.43960573299132827              -1.3079405793263625              -1.937070896713828
H              4.859011896902063              2.0567071058448736              1.0849325716273672
H              5.172095111138278              2.7120441092594714              1.1877572639025271
H              3.751137687671139              4.778593469443021              2.4183057097693816
H              4.07799573313544              4.713519037820014              3.0370504328809496
H              2.3306004634470643              2.6918076167038723              3.614226507117094
H              2.943109487356092              2.268892009875077              3.7590791375166193
H              2.4654946142078815              4.271051573090495              0.46092793492299583
H              2.9295068843145105              3.615579724565261              0.35580033931248395
