72

H              2.5839413209700197              1.7277314807609958              0.7213556055791462
H              1.9510524142828745              1.3467333432048587              0.6756730491176571
H              0.9451604828291247              -1.0692140401844372              -2.1331296422722854
H              0.4203797245352972              -0.5958885909839253              -1.7686480358474534
H              4.726284213128916              2.5238253981290426              0.8674827091322164
H              4.568716751735259              2.1978816892566306              1.529060921971504
H              3.6314684846032073              4.639414464561057              2.8183348156020593
H              4.379534889914731              4.612845966660599              2.96902124571468
H              3.4478059681920326              2.021385210848766              3.420365880151017
H              2.833133518566943              2.1825430361316887              3.8907297471095403
H              2.897245906083563              3.7091646161732723              0.46245154194718946
H              2.7490465086880698              4.320063043467557              0.046871648337973165
H              2.3421375230428816              1.3851920510224152              1.0948216341543915
H              1.9871735037437495              1.7638015078982416              0.6030925550836292
H              0.8452415517877029              -1.2395190531255018              -1.9689264130287987
H              0.6393150148178444              -0.5778847804073535              -1.8040040314488281
H              4.659534094348544              2.6684262241808074              0.9847975334135467
H              4.8867418318485605              2.048936442934616              1.1754345365014442
H              3.7070286113956508              4.449105890723618              2.933814861698111
H              4.486016158567503              4.508756023981704              2.95689296848903
H              2.967067184743768              1.524332412688145              3.557414481638874
H              2.9438838405421333              1.9948481787483021              4.1543097286996575
H              3.016409689251588              4.057200449143208              0.8645659514629497
H              2.7317647555517017              3.988839170867543              0.1736852604899719
H              2.388908766077151              1.2744383159915553              0.9387855215263702
H              1.780298934540209              1.6170534629245148              1.04405265408541
H              0.8568694236076402              -1.1204678724518524              -1.5635082750181497
H              0.3668016202673136              -0.5757485207250512              -1.5728355835626304
H              4.596179671012263              2.45916997322171              0.8531698424184871
H              4.90014834863095              1.9356395575533636              1.334943939055978
H              3.9428964743418478              4.15009779208657              3.210156980437084
H              4.4719910963255805              4.581602859010691              3.029265734718936
H              3.069913142350644              2.0137265208918778              3.529060058397707
H              2.7036972557445544              2.2950108850338595              4.095861688821104
H              2.7805565377239607              4.1198918333840995              0.7546954092018812
H              3.0360034738498745              4.0139757112745045              0.06641420146017024
H              2.3170799616365274              1.5347931228543132              1.378767380962641
H              1.8751497865490707              1.6089562541850049              0.7669767937784107
H              0.47781769656510653              -1.0905140683807306              -1.6908589371588418
H              -0.038703391879687535              -0.37921570428890305              -1.6006928208860096
H              4.453426217633097              2.3845749459257126              0.8321451371648554
H              4.889238960812506              1.9451002433501678              1.3137602343168038
H              3.9623293586499138              4.384168841166353              2.891638559556055
H              4.295655097247434              4.947482147795803              3.1446864531607783
H              3.2658942373180175              2.4257220234808416              3.36638486575712
H              2.9337931836240156              1.8412642164732982              3.7581051212935668
H              2.581580522601916              4.107361844204131              0.47806677561140465
H              3.2406479413373623              4.321622945907284              0.28631383811410344
H              2.4614939429276577              1.31898706134871              1.107897977724489
H              1.959007764916172              1.5976088521967804              0.7464948380007338
H              0.6599025784673535              -0.8750960548378649              -2.0140143362276923
H              0.2095057278133343              -0.5185553918903909              -1.595268978460205
H              4.462611055998501              2.189017594916373              0.6914051232753272
H              4.809726499329668              1.8407693638197113              1.251117967064598
H              3.4862047382034285              4.641673658124463              2.90622680009813
H              4.186643567409231              4.850912354681388              3.1238263308635537
H              3.0783091747944438              2.2603886542102254              3.121105036236142
H              2.8914856397297166              1.9922680166668847              3.750249226290946
H              2.5986526801025183              4.121125016604356              0.6140028968710671
H              2.9738052156259998              4.19676396010933              0.020978129205129644
H              2.526244064394747              1.8825270256272526              0.9033442696386482
H              1.8607965989102657              1.6984484320468205              0.6761394338397421
H              0.9975674926223668              -0.9659068518037515              -2.016705716211213
H              0.4607252083767583              -0.664507972001971              -1.739609763557371
H              4.7673870335639625              2.319910805252126              0.9493478618712844
H              4.979068850873792              1.922257949779098              1.4588971772427202
H              3.6066866883782334              4.829787104607424              2.7952763542889634
H              4.331238242198818              4.716586313782259              2.870918729794152
H              2.965212053025631              2.1428516975549226              3.2050176118573552
H              3.04134718080582              2.240063179981613              3.976493608002344
H              2.7734920868508266              4.043681960195923              0.7183882217394304
H              2.863554238516522              4.358247764583798              0.10451982308902397
