72

H              0.9367542855783021              1.082773699433908              -0.45704253571042464
H              1.5414062824846138              1.1691190832070886              -0.06385682251464692
H              -1.5509711066809473              -1.3825907954331345              -2.254917356930891
H              -1.8702783579686117              -1.618047974653389              -1.546289204477415
H              3.4364109647946384              1.4764184005894438              0.9285260996910493
H              3.938414575076458              1.805259626759651              1.3602452730054333
H              4.251890413991852              4.381203442847302              2.70559722420649
H              3.746831514893085              3.7631571431198525              2.827614666620666
H              1.2535642747663172              2.3336760333366278              2.5922099922982635
H              1.9019857067441124              2.027465228147274              2.246918738717799
H              2.1613385077438805              3.9015711578451815              0.4699229016407805
H              1.5156835692585795              3.925626576596227              0.9309368158094352
H              0.9449639589826809              0.8351364682277523              -0.5013355746075314
H              1.4106741374100886              1.3644830828987198              -0.27577420307898515
H              -1.6481704166391744              -1.5458900238424662              -2.434528015154012
H              -1.7631915422752007              -1.5068687430400298              -1.7488955044986783
H              4.01450625440936              1.2855967085349402              0.8574314342517328
H              4.380291164606743              1.896505078715184              1.0267699456571049
H              3.9577310809194297              4.651563930377138              2.433910157164517
H              3.72389459247578              4.153939742392529              2.9188809944810856
H              1.1653576695085104              2.3069128315996226              2.711953914907999
H              1.743861798793465              1.8478611635255926              2.5306871944415072
H              2.3337931833739023              3.928418607198488              0.26292188793023485
H              1.5697592463131378              3.9997599359121723              0.4948647733591476
H              0.6976800795132511              0.6535160368772281              -0.36634100341690207
H              1.3079998671652753              1.0052938065420796              -0.30804392205441067
H              -1.6276948433212155              -1.522043457508324              -2.747072358577129
H              -1.630211250254676              -1.55745872270258              -2.0174529583873455
H              3.8439499276043443              1.2728377182550155              0.6987532882388848
H              4.305779250450401              1.840085262363832              0.8226991426937609
H              3.9849529463861177              4.682463445784613              2.721319264914806
H              3.4516182100374317              4.088781629171789              2.9378130913650913
H              1.2229612647799386              2.3292938480039136              2.626297358921422
H              1.8855195430473324              2.076549237374322              2.716553717240472
H              2.124039638100349              3.837556196765575              -0.041402473287376486
H              1.8070891021179278              4.143331452766859              0.6077439201985314
H              0.7236977482637206              0.5999023584961686              -0.48855945334184686
H              1.1843228574440117              1.005424229217901              -0.022931676930996577
H              -1.3323791107849519              -1.459149266319591              -2.495275696184915
H              -1.247716902693973              -1.769850665717464              -1.8048609671843725
H              3.854771790675285              1.3802953972768852              0.8691972430432604
H              4.111870802979898              2.004969540816452              0.9966402804653717
H              4.231576310718674              4.450220086529108              2.5498365078545135
H              3.7299638292113264              4.08908532930793              2.9606230888993976
H              1.0482060625146936              2.334246276613438              2.8913931538343776
H              1.7432749722446943              1.9781076208202242              2.665177063483908
H              2.2320187617951266              4.062125820454315              0.34892308092764623
H              1.6697844290181414              4.141166912439467              0.8191772367665398
H              1.2713127465144471              0.620866176631406              -0.659371314243827
H              1.068048031602602              0.8014051880658414              0.06923701934712298
H              -1.562293045337297              -1.3108297423177153              -2.1845428713473973
H              -1.5126721721013232              -1.940892448284609              -1.8853970998352485
H              3.8411362577431394              1.4150477062237428              0.983566223194995
H              4.12369473777523              2.0785327371370674              1.0629926939887164
H              4.192570236089076              4.366729997117444              2.3749733320093775
H              3.9426172945913502              4.1189416624011885              3.049675535617639
H              1.2798253627388223              2.356490601369542              2.979254101455073
H              1.6734044368665513              1.8227478204817749              2.574596412582916
H              2.3788044759867346              4.023533971905499              0.7582042950615641
H              1.6735215098873686              4.100524148856713              0.7634977429796522
H              0.8800126345092842              0.8741820680691806              -0.5322134407519664
H              1.2234705016459266              0.9175112944463731              0.16008541131695694
H              -1.7091918294720032              -1.4650355824718948              -2.301537864836511
H              -1.74899166650899              -1.6678287616556053              -1.6215916559704013
H              3.5711180832014873              1.4821506359746102              0.8084817008676027
H              4.0927063422808985              1.9430635543046335              0.9641015869396294
H              4.080822109928837              4.420471837148109              2.6267586187735215
H              3.902470614502005              3.7295160999611              2.7725396530001643
H              1.5340509795391044              2.0729616477391186              2.8113906943329927
H              1.544724620242521              2.183953205228217              2.136241734382752
H              2.2474802952061013              4.213558013777325              0.6320545928344872
H              1.6053664694167376              4.270238035128223              1.0115351443028358
