72

H              1.0841133909316705              0.6772113050381283              -0.4368131694133841
H              0.8779926281786995              1.0293438091957323              0.1799461924745594
H              -1.7466762912448281              -1.4317227790758107              -2.610387813896533
H              -1.4851229175402691              -1.5631822741091697              -1.833967712047083
H              4.142433597691439              1.4279647181913644              0.9119536242373192
H              4.554660438777435              2.002276904126925              0.8072950745452933
H              3.8291788093476753              4.697098055816514              2.749907111965914
H              3.7127137320665473              4.034732113074057              2.717505055514309
H              1.0485574877234347              2.3820182664763108              2.727283184381498
H              1.563432719381585              1.8676380999522884              2.9038984973883237
H              2.2127585610358778              4.008258616423031              0.5490255553717645
H              1.488501441373135              4.148670950652257              0.5576917716322051
H              0.940529624570896              0.9670145389248744              -0.4039217339112766
H              1.0721933884465804              0.7753670232433306              0.3408093679699649
H              -1.7628177596451957              -1.1761821857524672              -2.4868933057665497
H              -1.6050967415603812              -1.6150607577583906              -1.9360331631525327
H              3.405262831374373              1.5190520968697103              0.9673524699232623
H              4.006615302292428              2.044487648616916              1.0485103390571526
H              4.031843478243932              4.586316582933543              2.919526661322402
H              3.786247196060709              4.058834248550455              2.523840424376325
H              1.324797379885027              2.459891545628631              2.7906594235949207
H              1.7062915418889757              1.8990687253175378              2.5182565199828972
H              1.8698375174313935              3.7872264163927487              0.5967561895563687
H              1.4190432343509067              4.215341029336387              1.0634804011936603
H              1.230936929929855              1.0062537938635028              -0.5268715186669602
H              0.9398856899965955              0.9410335751149196              0.23633446270951133
H              -1.7183358884225786              -1.0451849636810508              -2.2733202195047135
H              -1.6418009871754609              -1.5781826511380723              -1.789613143693482
H              3.7591863741907323              1.6235943711433274              0.9785717628673909
H              4.025172808318141              2.2368566502060676              1.203778412811405
H              4.2714947113523705              4.660551180519563              2.6198529672987205
H              3.8860537457826783              4.059938243607204              2.616141205211311
H              1.3184125599466223              2.403333360893936              2.7942704531363685
H              1.5373774681877193              1.7637244378516421              2.2585789221852286
H              2.0253159133923586              3.9330064041607975              0.7542330461845544
H              1.4376405994040424              4.222382105254492              1.0714242112384642
H              1.0592959097606212              0.8285564892439472              -0.5779452656473781
H              1.1238178784941362              1.10008575656162              0.05667724639726351
H              -1.7757755297070943              -0.994260232433444              -2.5129245361921804
H              -1.6094636057776668              -1.3807789403225559              -1.840306451870949
H              4.002683730506411              1.6053136249934699              0.7154748946257254
H              4.265324603431714              2.103063478048801              1.1410421874927532
H              4.240303406281562              4.495578373390822              2.874739350372815
H              3.6344067585347495              4.054100944201539              2.753057485896305
H              1.3114301411569425              2.425859267547742              2.649407234635647
H              1.6576832715496996              1.9336564935469158              2.2320867972303047
H              1.9299045130942727              3.829755187810258              0.2959036460521463
H              1.6405809560048392              3.9972462013820285              0.925075676910494
H              0.7552231257470454              0.9818159775403396              -0.3696478070047065
H              1.1499405416994628              1.4455963635205669              0.039928056527518484
H              -1.3788127381099302              -1.2209110241136114              -2.348433698992151
H              -1.2815825300001442              -1.08371526692081              -1.7207384674670752
H              3.8651072679815415              1.595970660533698              0.6246713444617998
H              4.293998800578544              2.0829724953140234              0.8498093810349956
H              4.261849638108864              4.3733586245511065              2.9923528064417226
H              3.7894781592833673              3.9319093679965444              2.663242076923899
H              1.2550172435705749              2.4010570348572524              2.5794074806239693
H              1.8086931967688562              1.968327981284284              2.537424114448399
H              1.8801997635815486              3.8933206410907792              0.10230434739820789
H              1.7074814148777528              4.008894853299312              0.8338691926309338
H              1.2938605053522467              0.7722774560440191              -0.3557104064364865
H              1.0010714742207676              1.3467942531466681              -0.050696849459240446
H              -1.3833450554573996              -1.2090172191303281              -2.2955507490174027
H              -1.401963201941408              -1.407772506574116              -1.6858324356938632
H              3.9689132269012872              1.5101099046618829              0.7574642704821003
H              4.300465337337765              2.0877145905935297              1.076202619539231
H              4.23195081712557              4.4250887436270006              2.736438404780943
H              3.678773699428148              3.9984896333844464              2.9448154841458303
H              1.2699381424312628              2.323915305209123              2.45519008352582
H              1.6796224052550983              2.0150844284274196              3.13239834520738
H              2.281814469950023              3.8135260921872134              0.3736312842815686
H              1.57303819164037              3.825511928338534              0.5117796320477542
