72

H              2.1994508953679515              1.0647426288999078              0.802969474119939
H              1.9040083644008843              1.65100657252759              1.0937098614568166
H              -0.5640718966148047              -1.0089572514604646              -1.8088689825134605
H              -0.7795128441810484              -1.3713469958990134              -2.299358403367022
H              4.598372277620333              2.430115775019521              1.202982846026016
H              5.119964882308605              2.6874625702952257              0.7261695089889422
H              4.189772522467127              4.848594979370646              2.663731727855088
H              4.612403644776341              4.423500963309571              3.1772177732630276
H              3.0295462474087143              1.9038240333909362              3.6487997093828533
H              3.364221446682234              2.0416718706881793              3.0115305583533916
H              2.9913421401432525              4.499901608515584              0.6678047864701283
H              2.564608185477993              4.009996722354711              0.3160578489260988
H              2.18484615886287              1.479219589646478              0.8485429417022753
H              1.8050181653611428              2.0629585969242146              0.9348263561260857
H              -0.5661874843159647              -1.3600524757151373              -1.634621455591518
H              -0.9625087735644673              -1.2671417729195256              -2.3591433862231654
H              4.550938155656753              2.1259060859194068              1.3392280460423502
H              5.10529171659168              2.497251660696473              0.8753193607999729
H              4.2260625601045785              4.80964712427164              2.7301283961965943
H              4.44550687806723              4.233936552826237              3.0888640098396025
H              3.3234791760168987              1.7033204784575933              3.755783874183398
H              3.109942460483102              1.6207511792665834              3.0269213754696187
H              3.1447824459719564              4.746043259803233              0.5730905812299304
H              3.0738109720119375              4.056529259315864              0.2790085102869821
H              2.1301591319634223              1.3707934077352677              0.6029707770896815
H              1.9628868357202478              2.0863329944225613              0.8007130295952983
H              -0.4901722456310041              -1.24203937515038              -1.623615654541155
H              -1.0695341647017778              -1.4309513570819288              -2.2070090523686607
H              4.938690239127345              2.0633355601105734              1.778384176378513
H              5.098280174616769              2.633042304504557              1.2207550000171117
H              4.575638992763355              4.764543244521277              2.679518688954371
H              4.49245960815945              4.033739786709635              2.965388203452737
H              2.9126502149071354              1.9000801648392207              3.7895984962906235
H              3.0807411806766596              1.8593129179443768              3.062143759567778
H              3.320929159385322              4.535146680072274              0.47248449368547696
H              2.864340183996965              3.9549776422772944              0.3259042561546899
H              2.09374735683525              1.3020926740973562              0.7716141386966492
H              1.9458292071249823              2.0307827411877306              0.8743036161779478
H              -0.7418062244167809              -1.237351181886624              -1.5446702712730827
H              -1.255725482711111              -1.5537418538853807              -2.043620357676375
H              4.934144982501827              2.4674110819507646              1.5473308780702517
H              5.080174751742351              2.860342635396979              0.9643617608553037
H              4.737143715783812              4.779776944991072              2.5757488093923797
H              4.57174237064221              4.183543630621885              2.9192684691014406
H              2.960938431834618              1.8336298324635567              3.599421606460021
H              2.8101573600220466              2.4648439419054253              3.3972116522711837
H              3.24329033005942              4.833588712778883              0.4117129427478931
H              2.7014071350042164              4.246822619212143              0.3897284360003082
H              2.344918279619104              1.1032962746085047              0.7635912546745054
H              1.728591215621933              1.3910131461211137              0.7721860092834599
H              -1.140645779429083              -1.149256104570579              -1.796164458865535
H              -1.274948863534337              -1.7570115791638385              -2.2777719302664026
H              5.2479458571069              2.3240446567296487              1.4211950540774576
H              5.110059630434456              2.730539249555596              0.8100881291637404
H              4.420337003330117              4.911308000012926              2.7162348953723066
H              4.158007022028017              4.270796470333315              2.885886855612896
H              2.7385966562653645              1.9377970760267516              4.033889894583323
H              2.638942144183633              2.256048128546942              3.3273929714161787
H              2.945298874455071              4.584521331097826              0.13808784768009325
H              2.6599011716031504              3.9489028782800903              0.33144757208689946
H              2.5025232661462615              1.2938486856968392              1.0301736143365186
H              1.8772267427129385              1.294290245280103              0.5895205145258937
H              -0.8055833647579752              -1.0751973733810678              -2.106986080418034
H              -0.9732979259671033              -1.671803942107904              -2.458848302501365
H              5.027113825493776              2.3221326750657263              1.4733013577771
H              5.492015133053536              2.8789088306030814              1.0520110348088023
H              4.363189977595867              5.057356300194025              2.705942413918619
H              4.3238557423791              4.249731359507415              2.8544532984045996
H              2.641940768367376              1.6729819669397865              3.6964959056593196
H              3.0139608217025526              2.262805982012038              3.5541357978310386
H              2.9474321646433657              4.484542101367235              0.3420676819791765
H              2.4754336879961              3.8803219752003493              0.4335999185951709
