72

H              2.323311618988531              1.3636248759735876              1.0904376102376596
H              1.9960892017453788              1.9943788993896228              0.7119238089495178
H              1.0869097028001302              -1.0639356957205919              -1.7396699850237043
H              0.4090018351280775              -0.6819937582269086              -1.644343565024863
H              4.828602141685003              2.5902630902805983              0.8937246827091854
H              5.041319937486864              1.9761200936270227              1.2825639117884078
H              3.85930951609782              4.667401497834475              3.146877720728154
H              4.561538886154758              4.812999867282157              2.944502869463294
H              3.0474673575350915              1.8332455926560984              3.293176917162396
H              2.722299392695867              2.148778015908845              3.97522159992047
H              3.1531503728277923              4.133213815767869              0.8952189982539082
H              2.9060568749968505              4.162829588021753              0.1721935782577136
H              2.6655650080136604              1.4486852225325497              0.7697178665166309
H              1.9643451427005485              1.6443037371765636              0.801639367392725
H              0.7551644249244551              -1.0599750346378554              -1.8482399050861815
H              0.0786442804259466              -0.7412566721344519              -1.8128343697946265
H              4.680036741686921              2.554796210920802              0.9717709937094959
H              4.962778492612301              2.0421279491912054              1.443764865149418
H              3.6898034825850563              4.583066857191762              3.0170146113391865
H              4.435569904816352              4.727003807397196              3.0632409637299323
H              3.0816867077005767              2.089415998919092              3.262338198018874
H              2.845530969145277              2.2624826612694053              3.942893338231091
H              2.814335453093592              3.7516209434000225              0.7030990291344607
H              2.775601743766218              4.2340859392090815              0.04181985013410818
H              2.8705484623298583              1.503628544478436              1.0612301463812166
H              2.200967481855792              1.6053948725557767              0.6871387867012809
H              0.7243841985839469              -1.0354223975357477              -2.1287909951935284
H              0.28402689698553807              -0.5049832618461367              -1.8807908997868776
H              4.556107834985419              2.55355593291004              0.8768950806493037
H              4.83510029892802              2.1063075050278717              1.3968034774316485
H              3.7547832081125345              4.387010893279971              2.7491401027758204
H              4.300518491107468              4.801564057889361              3.013260333521726
H              3.0038621956872795              1.7853135613312212              3.133914632403152
H              3.1223355744115464              1.9627324805799984              3.8457295267315854
H              2.5405798453564996              3.82148601207026              0.7259188396840467
H              2.7075554945548714              4.188282771494227              0.08072563619856725
H              2.520548777540967              1.7364478482076788              1.09992563731056
H              1.817477641677974              1.4818266538239173              0.8102149018130281
H              0.8756969081821393              -0.9354330131795044              -1.8434227924333333
H              0.728568056099684              -0.1155577098922243              -1.6726874141721557
H              4.73214049775795              2.4591278434153354              1.061119348460637
H              4.714920484874245              1.6799179455838948              0.9361678043547288
H              3.7566817661265977              4.458445234229854              3.165674772356106
H              4.368848665693839              4.563057210344264              2.8094966739027125
H              3.2326826315511967              1.6589852579249043              3.1997831542006456
H              3.153251149226673              2.148204863575361              3.7530936499335725
H              2.389344784317351              3.9834401662437706              0.7079319918788997
H              2.7419641020265275              4.334162932610763              0.15298170513249845
H              2.3643355433873787              1.8495282471710734              1.0719852854557888
H              1.67701901220249              1.8174227172970707              0.7898269463830598
H              0.8555573199561131              -0.9533095795675255              -1.7563876098385889
H              0.6899669704444801              -0.23211025966301416              -1.5999326699177308
H              4.591080426805306              2.3278130526733145              0.9435776580502533
H              4.687302026925615              1.8224318472011993              1.4520415935875775
H              3.7973229403201927              4.600444208182576              3.1081720573504685
H              4.533670781319303              4.61223432653553              2.955920817409401
H              3.657352719056046              1.8094846810417293              3.525214078100074
H              2.9643715601713234              1.8900433773924528              3.5928553753212245
H              2.7831455248096915              3.991871640450241              0.45984764667203354
H              3.017991395651386              4.515367638779569              0.029176281533843818
H              2.2990216143278457              1.3815570794331398              1.1087663916426538
H              1.7153892226130094              1.6143307218916365              0.6693021045559784
H              0.8818292732816502              -0.9633106724054413              -1.8846671657927807
H              0.5730143710434428              -0.3240593003044389              -1.6873132575256593
H              4.751823294266438              2.461394392838842              1.026478577419949
H              4.685271057714632              1.8833523292159347              1.6191263874933015
H              3.821044134181589              4.906401585656539              3.1099549129762902
H              4.509483681000928              4.653723936989033              3.128990592988847
H              3.443166689538415              1.618656412398834              3.3105409313625054
H              2.8163842093119              1.800328814516863              3.7215385368640623
H              3.153240111197812              3.8291939835423325              0.42000000782327823
H              2.9507231332004933              4.472783080406365              0.12229518665496622
