72

H              1.6124065953928872              1.7496423049388106              0.1587683850670975
H              1.2698383505401951              1.4051385521648085              0.6743814903759394
H              -1.5800987177116832              -0.15736878055036596              -2.2286916881198957
H              -0.7687024763639861              -0.18060298481985246              -2.1238973234782152
H              4.43643272251048              1.6410684627309826              0.8565288742402243
H              4.649975545167779              2.3615323994172925              0.5460846671405669
H              3.337298582575221              4.019023442542239              2.8614918313773097
H              3.921011417841619              4.57616976527009              2.9823618951539976
H              2.2117203314397047              1.677992762932025              2.796627521074747
H              2.4798079401310438              1.7552556379532849              3.479371393354469
H              2.5450191579926713              4.093273768905965              0.28362037892384934
H              1.9615606562184862              4.158416931916902              0.8488342591913332
H              1.39636491829397              2.1268064892796206              0.2714808094901605
H              1.4568757443349405              1.3351173633471085              0.19063368741512893
H              -1.2944109239665256              -0.29508657303080255              -2.2949587420826614
H              -0.6880283692546034              0.07254574521520607              -2.302094203139711
H              4.289474555644796              1.9411875419560571              0.9627698853833141
H              4.319226964052048              2.283840965390709              0.3155062518991754
H              3.4022985066554154              4.441843039986024              2.423213989232149
H              3.933714076393747              4.497872259079117              2.9553889002552345
H              2.0748424560052277              1.519249287638241              3.016610444150601
H              2.675450423091244              1.6765078038178678              3.3476282549552256
H              2.466704799787072              4.217673250397342              0.3314056058508
H              1.9901328326167178              4.334209600334303              0.9156565515623872
H              1.6651949807211837              1.5675182243524965              0.16307786735353422
H              1.1806261530370128              1.3141387901785127              0.5596640733693489
H              -1.2216204596021967              -0.06815360033432757              -2.2815254987693865
H              -0.5736112384024235              -0.0594122851834352              -2.4202116685706936
H              4.248451948013572              1.8452739507182603              0.7449959093692182
H              4.263931340701608              2.6257881065399573              0.8075130339968166
H              3.460746135527292              4.290848741958417              2.7463535238792893
H              3.9489995333936383              4.828686290001194              2.7663667734025394
H              2.2194584646761517              1.8871065533483629              2.7078562637211077
H              2.8580733002838903              1.67165776000443              2.968897573398475
H              2.5566156234392197              4.216413413286361              0.3360728880622451
H              2.1015757091410383              4.411640076426783              0.9046900451560356
H              1.5049614071872215              1.7980209450551747              0.1284253616554759
H              1.4837539602492995              1.2401220026149444              0.5506880063667695
H              -1.1412166290318928              -0.14311608837288572              -2.262534635725275
H              -0.3681217331091103              -0.09017023175044485              -2.6454724557709124
H              4.747393636040541              1.879059066547678              0.6327812488514436
H              4.638804794271839              2.630007457296728              0.5956655810224034
H              3.5939651361927343              4.125155609677656              2.759929278980849
H              3.977425288584948              4.754254619198078              2.907861018873055
H              2.4015045886270117              1.5254716958662415              2.542937446562668
H              2.393568676483856              2.126589723159836              2.8242425036412104
H              2.6255303876733365              4.143758418736993              0.2611508535018431
H              2.094526030065598              4.2062267491581515              0.7978304688150996
H              1.6392487076496725              1.7377163894324321              0.4147353987841225
H              1.6768390897946621              1.0311412641815498              0.5236923665479178
H              -0.9501187898993714              0.07639256213942408              -2.043957586276633
H              -0.3101306293462786              -0.10988865349476418              -2.2602063487690756
H              4.275404718297639              1.7701939421045807              0.4230196059113011
H              4.656291093999796              2.514891406268828              0.43614226661019334
H              4.016635891665938              3.9281475495832066              2.7236992630294434
H              4.008042110510284              4.506943643757957              3.25257054559119
H              2.425916432983712              1.4487084951552822              2.647784850449512
H              2.5700062631578535              2.0243528633517713              3.234814882398331
H              2.332995955702216              4.222085799105672              0.23602485788291952
H              2.100312407496023              4.018705744815887              0.9486270883579644
H              1.5346928112741447              1.6868561477884696              0.2643589257650387
H              1.5279402361668952              1.4229021357863916              0.9754362954208879
H              -1.1872743472175074              -0.08147655030017575              -1.8979575205118193
H              -0.4836040505323411              -0.18470044631680888              -1.8411660216074173
H              4.481439543512057              1.6557547718878303              0.455684259554774
H              4.699034646725523              2.403470855060588              0.45471268847510615
H              3.768479242059479              3.9209591540580884              2.7592242117710772
H              4.172368277762458              4.437303989831748              3.0808377898629136
H              2.146496546322219              1.4511536403921717              3.076521745780706
H              2.68310027891022              1.8519824771377615              3.2993130464584324
H              2.446696785340262              4.342588071327288              0.30615289236989685
H              2.1046879565861945              4.185819876519966              0.955107813539296
