72

H              1.4748546869252095              1.593401612476286              0.15040542630613746
H              1.512312717728517              1.1116678096858714              0.6692674058692923
H              -1.3270627512012245              -0.03467298998960848              -2.0098823711929774
H              -0.5787227859857129              -0.016715260025266236              -2.1214723391695403
H              4.085280204721901              1.7720000689455238              0.4815816074505936
H              4.276713821731128              2.5185246297686876              0.5138597587215458
H              3.740209183557413              3.956781869504208              2.5165837304625622
H              4.083566640104824              4.525832291400911              2.9200067994088146
H              1.964219903315881              1.7834684282478674              2.7082420653634656
H              2.6323510518849202              1.5921429719514824              2.9170578706944505
H              2.0221357665846624              4.104999057743561              0.3078012901856788
H              2.068005261830999              4.458514121021265              1.0361880954299107
H              1.5910276580103404              1.328289596878329              0.25631110475187874
H              1.2016275935844036              1.1706106469295727              0.893164188507168
H              -1.3410868605219253              -0.0367080248404505              -2.229293673316097
H              -0.6109558986846634              -0.21240285787403534              -2.117301340851457
H              4.3860310433751755              1.738681230769758              0.5896394692851332
H              4.719724163494777              2.4017986423593296              0.6831551942357611
H              3.6450630479500967              3.8990060354521483              3.050115148929315
H              3.883545254515347              4.6194691790340565              2.8580271510746784
H              2.2766641663510776              2.1251977605547294              2.3369104642895495
H              2.3804914502408154              1.6710553471113014              2.8455137235603627
H              2.3544875908363347              4.0275271606987975              0.1841321891448749
H              2.125838922568335              4.309282939868876              0.8107310111568667
H              1.5641572196415563              1.8129400927148847              0.14134573491200336
H              1.3090009712149806              1.2325756169504682              0.456096678969393
H              -1.1382878121804285              -0.3541971805919552              -2.36174647178675
H              -0.5106481186019303              -0.11862559779821627              -2.1584023036415214
H              4.4606041627753985              1.7333981674736303              0.704652007607391
H              4.8183671082638115              2.3120580503873005              0.3566300833359437
H              3.4953611496062327              3.9597216341915624              2.9724886021830788
H              3.90525374688828              4.627219980006538              2.9304738212625354
H              2.1613938644837636              1.8349194912419875              2.468968142819792
H              2.1740369486474984              1.9889527238795366              3.23249498425093
H              2.425842105662794              3.935631505630525              0.16635048978365208
H              1.9257823089244195              3.8724041327880467              0.7094573073835924
H              1.6162872237190684              1.833285541537818              0.2112650521217755
H              1.2129218196938991              1.2074645462731344              0.3320800616310046
H              -1.2729684278560331              -0.30216955101274023              -2.3290747519484527
H              -0.6477549934636341              -0.37279198412451636              -2.031995591819966
H              4.188817800813879              1.67767548394363              0.7540101050160749
H              4.583686720170352              2.376489733835525              0.5259216762121026
H              3.5493252902310264              4.182461597235903              2.9530689299650987
H              4.066616926160271              4.64981808274635              2.720252807723562
H              2.2548328253474943              1.7033110621294547              2.6978676786965696
H              2.3820728894113947              2.0089878407794592              3.3889164739994446
H              2.4547014708986032              4.086259174202757              0.5245585155890446
H              1.734133916655471              4.101451512739409              0.7689412127377919
H              1.4577710589732664              1.8527543213886293              -0.03977329795592265
H              1.217389662905575              1.3127950149140841              0.33391854895244566
H              -1.6449354131640954              -0.3543130328341973              -2.303604294807629
H              -0.8338529325381026              -0.49911333428995086              -2.250143750104017
H              4.4346626748209115              1.7271293894330064              0.6892130938461744
H              4.5118869931146675              2.4349886706380675              0.8427710586959977
H              3.3914330057181923              4.3337195632783505              2.934985211327299
H              3.935142606437952              4.472819004963899              2.5009568062426086
H              1.9064041653039585              1.5909903890303796              2.7147032333125725
H              2.317181709557211              2.093465349664252              3.1795322260971597
H              2.3966307653766226              4.198092345459995              0.607553888843631
H              1.7282000842650762              4.055535988200717              0.8474864068331638
H              1.4131828551811583              1.789914733830594              0.01012989277111829
H              1.46968258882259              1.0683723179878788              0.291500036993323
H              -1.5833049562333625              -0.15836181955090975              -2.221779211576234
H              -0.8480719287748035              -0.3199154948388176              -2.543744664603388
H              4.232210696691691              1.7672467313165297              0.7827272469763278
H              4.428493343843584              2.4473554670684714              0.7257981601297736
H              3.516964074674062              4.078096090881032              2.550880712814347
H              4.02351290940213              4.599872493576051              2.830045634299453
H              2.0301062844063105              1.530307880855618              2.618273972403146
H              2.3553448490154523              1.9208915291416053              3.024514329523545
H              2.0865583945242556              4.014736090805021              0.4694636615296506
H              1.803348182480517              4.328464534342928              1.0603924728139549
