72

H              2.3301603095702443              1.3707200531320936              1.0927372311436874
H              1.9918358850907012              1.98797060743979              0.7020267027007623
H              1.0821481005549463              -1.054712047696834              -1.741309526612657
H              0.423194972550699              -0.6906428518250186              -1.6435605437567304
H              4.832265638071168              2.6016138301019467              0.8817029267311751
H              5.0327309925032555              1.979971364786961              1.2808921120729497
H              3.865314174714244              4.665930934140693              3.1428169020981627
H              4.557599581670938              4.813720748535964              2.941132774164563
H              3.055847725184006              1.8497084274469746              3.302468873264034
H              2.7238792346031295              2.15359306464342              3.965201831930594
H              3.1512092815149937              4.12505456620831              0.8889115752719321
H              2.9026560599692535              4.16575093446741              0.1769034707219079
H              2.652608880597319              1.4462612391626406              0.7680022111678689
H              1.9709085102972055              1.6544229293904464              0.7931286621914412
H              0.7598135104443122              -1.0762484570048334              -1.8519150630201755
H              0.07343429739586518              -0.7375355757255022              -1.8167739674902683
H              4.669817113467423              2.5615481548783463              0.9745433291124396
H              4.9631214643362              2.04259030885884              1.4345506939758004
H              3.6871659067194953              4.5825526678829025              3.014990028540874
H              4.4296886503185195              4.715176719784982              3.065109925807686
H              3.078326113070254              2.0740597390563473              3.2759218712366525
H              2.8442132573685166              2.2578967830826335              3.957769740608952
H              2.8237760088502575              3.7494763149753223              0.7085164619855051
H              2.7719140542958307              4.2232479384492985              0.042641955630666584
H              2.8801938406070056              1.4899928146447274              1.0574545026936546
H              2.1949273127048223              1.6003523835560007              0.6983128580204139
H              0.7306247375622292              -1.0360405589607693              -2.1205187777638703
H              0.28485022006645205              -0.5133539429028625              -1.879284807921072
H              4.557732786337392              2.541079799807944              0.88751636302109
H              4.8286124501795245              2.1190061016842288              1.4004087659873314
H              3.7559774837713547              4.369028487663825              2.749991565072325
H              4.310985452174599              4.801768954447032              3.018739001134159
H              2.9946633718762827              1.7844548473696165              3.140658856336689
H              3.1143346235533906              1.9713012171311515              3.853683013766657
H              2.5446873813203976              3.825010887507365              0.7271034715373046
H              2.71257300771673              4.177244338580634              0.07801092472399107
H              2.5109817891472708              1.741814835639347              1.1180436459990823
H              1.8154976073964888              1.4758461101163616              0.8137579209440902
H              0.8598109831795547              -0.9262876244276694              -1.8295308502635896
H              0.7195623616588738              -0.11989869445907618              -1.6680701422011217
H              4.73117020855672              2.4557958093225323              1.0564785419347156
H              4.720113391416945              1.6812594255684647              0.9236129534327486
H              3.758955788945764              4.445795730923834              3.170909652407387
H              4.375412359470061              4.579522251005212              2.8060689054489
H              3.2426531934759804              1.6865213487309216              3.186993133654769
H              3.1503363921172873              2.143475330466319              3.7559088554195283
H              2.379488411005786              3.990060462030361              0.7043298823026224
H              2.7526329534482947              4.339091083504747              0.1652562784987901
H              2.3720119646980202              1.8405943609663884              1.0699509652986685
H              1.6767494908310963              1.823483328454042              0.786690581044476
H              0.8501267446123738              -0.9614893903143863              -1.765829464503147
H              0.6734015702387389              -0.22784453479140887              -1.5932435909102998
H              4.573374958916195              2.3172716957462285              0.9305456391550061
H              4.686245015368346              1.8168339183829822              1.449865981459233
H              3.7855495695540267              4.603217874032375              3.105849194767994
H              4.51783412817971              4.613861343001719              2.9634103777930436
H              3.657571478956952              1.8239837664888237              3.5216189950345607
H              2.958330125540589              1.8843994522707899              3.5925285926639865
H              2.7783452537572613              3.998189015472943              0.4585539584946071
H              3.0205527003004478              4.510341218215209              0.017546459658331133
H              2.306959003584623              1.388826759912229              1.1031706812254247
H              1.713517346525482              1.6112356855872474              0.6661892413707587
H              0.896117017839952              -0.9761882467400675              -1.8987172747559147
H              0.5701968654144898              -0.31738085293361634              -1.6878891690210707
H              4.758741277582014              2.4597149070513886              1.029881782434257
H              4.690510546576953              1.8795453338824948              1.6392796184274006
H              3.816214651793583              4.921147272088547              3.096884105034143
H              4.509749654312952              4.652395144769856              3.12790076736733
H              3.4174591544017825              1.6185870202696084              3.307554363302316
H              2.832503738981335              1.8067931071359142              3.723112351479501
H              3.1517161661881095              3.832770655091991              0.4206565592384033
H              2.949856886247287              4.474744989128798              0.12102342482043313
