72

H              2.217502886628152              1.4997867992022018              1.1688000959445737
H              1.715980310446246              1.8656290183748818              0.8331876407563318
H              0.5396087056181227              -1.1031125395050567              -1.954049096788288
H              -0.16370754861430517              -1.1269538585705157              -1.9015013468445652
H              4.840118503645166              2.3448349437011182              0.7286485441338855
H              5.171075828590628              2.488328168083302              1.3841190540946835
H              3.7020808191778856              4.631620582887727              2.6611052769886676
H              4.367840892497349              4.780730524224723              2.8164545528330263
H              2.7402016446807913              2.4194605295068405              3.371334939242131
H              3.1950868325044643              2.090677038913463              3.7262897410303086
H              2.6989834996477255              4.62708447524471              0.512605880063306
H              2.6950461984808007              3.9624493009438604              0.24909200692740582
H              2.2312409941722633              1.3993487325104639              0.9073108646451745
H              1.5230538784378873              1.671412691929588              1.0440459019953836
H              0.40429390681213667              -1.263229528618139              -1.8810250871255048
H              -0.3590621584080848              -1.2614134670141068              -1.8544730037953006
H              4.911395409918382              2.025302297608824              0.7276927661687645
H              5.026233212426031              2.507901186147056              1.2963408330919974
H              3.800279450435292              4.497096697532704              2.6367699914033844
H              4.2437875553273985              4.597119882344878              3.2586770752731353
H              2.7182186262955494              2.3186374264106733              3.6469080176023487
H              2.8529734722356728              1.7082253671906789              3.9168806732907284
H              2.802456942629289              4.580026590166423              0.1446310613130382
H              2.9129008233460634              3.8450424980153337              0.17661530483103738
H              2.121392475823789              1.5538669524559823              1.3041193064414875
H              1.5893297004602025              1.764458859772274              0.9004738133593867
H              0.22561713261964464              -1.339986166409355              -1.8275092035840765
H              -0.36351169589702154              -0.997503610149072              -1.7464565663786253
H              5.025622199709384              2.089819675592118              0.9532488928697223
H              5.232247306327953              2.4401692781066466              1.5031430066462077
H              4.295115108367478              4.626278405031777              2.5543312822828352
H              4.257796050040383              4.753210562683046              3.2753630742807016
H              2.254260764590255              2.12223346780337              3.698733639201408
H              2.9063053728916977              1.8843172029124493              4.000276907873136
H              2.8993020635971303              4.541306082811268              0.41159620772422656
H              3.0870222406037264              3.8385235588863527              0.488055986158906
H              2.151170536939579              1.350429391447944              1.3079379246504834
H              1.5336453030735042              1.6822565296149712              1.0525896355988682
H              0.008666349938551433              -1.0913297670477946              -1.6833296267688738
H              -0.5329996930970047              -0.9035097062796689              -1.404580313210391
H              4.701102194774083              2.1452906203817528              0.5566933444150303
H              4.956369122574951              2.5367646816165856              1.104142416953831
H              4.0888104088786505              4.576479968650656              2.641710175867387
H              4.28297404672221              5.007655850743876              3.253774829436443
H              2.27853552515726              2.5307895224886257              3.6848891762008895
H              3.0355847381787866              2.369399186681609              3.6919972669405956
H              2.9696738009409156              4.395234641423314              0.29063028268241575
H              2.951047634648696              3.921146122455695              0.7716561437759464
H              2.244596313087562              1.8746253525803422              1.0167823771026856
H              1.5934947616688482              1.5447612708576994              0.9511912498286144
H              -0.00018607063135191393              -1.1150891498479245              -2.045376938810392
H              -0.7193900344421407              -0.9950276388451484              -1.6189903745361038
H              4.5950889121760845              2.0538770148569085              0.7858326060788995
H              5.061703843959445              2.46852439651209              1.1827494077862462
H              3.723212657164635              5.012496954949084              2.3711481975329045
H              3.9354143519254476              4.845572130584884              3.0808709970635233
H              2.4194130606830315              2.4244931513088788              4.013358415652255
H              2.921523637991405              2.134512710169852              3.520501216958392
H              2.729902880855971              4.176078346112246              0.26592479974723715
H              3.1975250559812265              3.9113498309288364              0.7829550068804627
H              2.4127313790337808              1.4386053483681878              1.1009521922617669
H              1.8637424293235871              1.4296186741981558              0.656612215585338
H              0.39458597551845964              -0.9156508082535342              -2.193403663436409
H              -0.25178161436981716              -1.258402535098904              -1.8579343908850336
H              4.926197617232593              1.901210308501798              1.1770574657877724
H              4.929195299279746              2.6660169568915197              1.3221557370859278
H              3.6907752240338687              4.833293953208783              2.3540244676082636
H              3.9770189191987826              4.716013299325907              3.0041847301677724
H              2.6812367308237333              2.779027954380419              3.5674024351856177
H              2.7770296516355644              2.006923428042598              3.666356890746988
H              2.5760326748645395              4.371798519791041              0.38267708327534483
H              2.995396899990082              3.7242054039550894              0.24561654637614416
