72

H              1.7480063286339471              1.9213329112917379              0.1252043645210833
H              1.2637031021443585              1.4606518113484264              0.6112822285037626
H              -1.4003665399924083              -0.27470364678393133              -2.250891431460224
H              -0.5593806265928124              -0.24266662304932782              -2.1658677078880966
H              4.33290743791241              1.764098782668973              1.009035870684044
H              4.691216707892439              2.292680645932205              0.6667300975616441
H              3.449277001768752              4.079952944674231              2.8394497180753047
H              3.960030061012976              4.5868739778714165              3.147795127908072
H              2.2307157080059095              1.54775282787399              2.97709389490943
H              2.577492320144686              1.8363432596011364              3.479965801923113
H              2.5516763182614257              4.31159272311596              0.285073623105068
H              2.0841371143610714              3.9866816707036876              0.8226106202936823
H              1.5491244274475076              2.087442536209398              0.1734474816168889
H              1.5602400577277453              1.3200107757029031              0.31725610423490297
H              -1.2620402148903376              -0.28037785707410334              -2.179206808737821
H              -0.654331118401909              0.034376324567643474              -2.338434708279106
H              4.557295775572344              1.882662890848746              0.8385146583931957
H              4.273545975638001              2.429561731800383              0.4664569290227474
H              3.4496600637969905              4.464357560311797              2.383953534595659
H              3.9768053604117206              4.616044591369437              2.8820413201204906
H              2.0839630834528933              1.372555676566901              3.204048533191417
H              2.7116422771925              1.8036359227366634              3.4201168502266555
H              2.5416290975666              4.151931339601363              0.4240775169566497
H              1.99459121138746              4.263786360656005              0.9164452700692014
H              1.6416408066192165              1.8698742786393252              0.15971066174729442
H              1.2399139268767811              1.2314050065374402              0.4704702848980631
H              -1.3629154376009864              0.002854900227554701              -2.3034281301615307
H              -0.7082150656436852              -0.09313932763413924              -2.49034694215587
H              4.336780071254085              1.8691327457776992              0.6764423135553511
H              4.348238573164346              2.5593005433697624              0.5522464630995442
H              3.4483967472133017              4.383326734665401              2.6744581869197925
H              4.039106537487945              4.727780494487742              2.842651855679683
H              2.2650297532335792              1.7280828881470474              2.759345730293545
H              2.939149549087144              1.6685427727599424              3.0796005113981355
H              2.5111713833541374              4.380533453723136              0.38685569482999577
H              2.0357354500177753              4.562211293174442              0.8345954898710073
H              1.6677348533265286              1.6749649637513073              0.19153086269252192
H              1.5683147975800955              1.1856771781261992              0.6556647099465197
H              -0.955100171367845              -0.043953256394098146              -2.094443862983736
H              -0.396801074612878              0.03689494257161089              -2.589788310949932
H              4.362776971723737              1.8622258195836983              0.6644719965217104
H              4.437023357987129              2.647129411916367              0.7349761716112385
H              3.751933977566656              4.055444351343814              2.6788359467484653
H              3.9060651178855927              4.576780349877051              3.1349937510861383
H              2.2075511414737434              1.370214050189985              2.6084226477230006
H              2.678178864971793              2.0227482514406656              2.942184476528827
H              2.4162168563780138              4.310914729185759              0.16261363641142834
H              2.2910727584827204              4.1437824741557545              0.9002956301719643
H              1.5617081411360103              1.70792920825897              0.40677096215417596
H              1.67895575925583              1.123716348827317              0.8864362161149585
H              -0.902022026818736              0.12204327107044384              -1.9302010292206244
H              -0.1564421474402838              0.06676942757975429              -2.2655317141928575
H              4.669887611794062              1.855663524788078              0.5184948228239274
H              4.659033631251928              2.5259464024620644              0.3802793011390006
H              4.080570756651764              4.125125161406135              2.6018469776549056
H              4.0182949129203145              4.452749917260596              3.1987609287501435
H              2.5420684985723643              1.3200335978793778              2.735619330746213
H              2.645371481740205              1.974283312061347              3.1838517166472884
H              2.5314190853549836              4.115347244934819              0.2728625109584054
H              2.2864503314309714              4.335244043079872              0.9120227128622251
H              1.6276359457611076              1.8976332563202363              0.26069435279422
H              1.4669367855202275              1.4384832529843095              0.8827269520881293
H              -1.1367292077278248              -0.03776607622016591              -2.102025539785871
H              -0.42151911497021377              -0.06912337260876092              -1.8314484972038876
H              4.453104994168071              1.7539921588698462              0.4187524849542231
H              4.702085380167748              2.381315969504146              0.23694866577176207
H              3.646738432603287              3.9429643380325494              2.9754389167385726
H              4.06821306322894              4.4951700011481455              3.158423274100369
H              2.3212866538755312              1.6179904959021538              2.872016605201771
H              2.7529928380263287              1.9357304978754204              3.412184507368169
H              2.6328780479393847              4.284084461820844              0.2094812011929247
H              2.1441163850304847              4.057883103315186              0.6962490348399258
