72

H              0.9761126723018352              0.807292515724581              -0.3002092163555523
H              0.9886071225621903              1.3771820749192751              0.1825484205826133
H              -1.3296322071431685              -2.0801679872202414              -1.9827954144916557
H              -1.9607989025151977              -2.130457360777233              -1.7050571576586173
H              3.6519808780741516              0.9792757839942848              1.1430342081945644
H              4.11904345214275              1.497515128861663              1.0104163693255228
H              3.816822206585621              3.937403273791748              2.6684237104618718
H              4.401634952380086              4.1320513750578              3.057000699690981
H              1.586506175392416              1.9615348421955563              2.9002851470236313
H              1.671162241248981              2.2026639978053932              2.2138813093564402
H              2.5612447618184717              4.12063490967584              0.33900158136352204
H              1.8717322442709672              4.014793193353566              0.0514676501124057
H              0.6821029043207054              1.0249889585243985              -0.23480443513118804
H              1.3081560851364435              0.6533253375842205              -0.17360263954072128
H              -1.2900566577502959              -2.261526008246202              -2.2849525308042637
H              -2.119579559739285              -2.2028160783248634              -2.0149840791751226
H              3.9195751049071497              0.8734101240154838              1.1602141005208662
H              4.502459200155436              1.45179161076316              1.2330023423672078
H              3.6637705686243427              3.957342252885926              2.654551909556116
H              3.9155070389777706              4.181250412294895              3.3204407439189643
H              1.2365475349615256              1.9451554119992893              2.5561655165056534
H              1.8224060306064684              2.308255934549648              2.5213179570615876
H              2.6510809040137024              3.904797070414963              -0.2508260795828093
H              2.0582685994306282              3.9374913573345505              0.12631006362329614
H              0.5498274227266923              0.7157652468266881              -0.3427557897444604
H              1.239026155115087              0.8216029949387322              -0.2901823821142299
H              -1.0643240578505704              -2.2605820915509875              -2.5724435437624686
H              -1.6166971588232486              -2.2721386365908445              -1.9836221762970403
H              3.987145925360343              0.834723266724085              1.216458451692608
H              4.35370073486524              1.433099646471256              0.9995269349343099
H              3.53993213755848              3.8962176043876204              2.6202194232527503
H              3.7607577320743335              4.293738253264819              3.1137692756000597
H              1.8650228418144053              2.1584442489184976              2.8987132447436434
H              1.4247554060071357              2.312784458368297              2.2737972972426763
H              2.5305884456487577              3.9560323377527475              -0.2975662898650531
H              2.0317230580700403              3.8758228242062973              0.2525382677728194
H              0.6369616896548962              0.983682470164835              -0.33170871358782733
H              1.2897598589797918              0.8204603143527369              -0.5836855172688088
H              -1.1157065359171487              -2.107713100381935              -2.3369095663868853
H              -1.6322844598912465              -2.4362277833846515              -2.035429343633307
H              3.4738623744422465              1.193820189807788              1.3005154057325168
H              4.071607201828274              1.3918846208481128              0.8684777998497939
H              3.6846293854518777              3.983881965554912              2.6185438976796584
H              4.207836748548745              4.2229694377231715              3.0435675533388533
H              2.109743587401318              2.32319482166906              2.909256576845978
H              1.6613775693644055              2.0541591209946355              2.357194691093683
H              2.6947704773322587              3.7180597366677737              0.15174159233034437
H              2.0502684334428762              4.105347430705557              0.38416754878411313
H              0.8344629363306983              0.9504855144690647              -0.17939240192803316
H              1.0878187700619357              0.7904745320157897              -0.7844365863300342
H              -1.2012161843564526              -2.281053082421516              -2.295130878583914
H              -1.828325143651218              -2.4802296304685933              -1.8135165532581503
H              3.863892143284163              0.9289829308852104              1.1681357542793867
H              4.2101208643920405              1.526507387814084              1.2208576725797862
H              3.6249085246275694              3.8702446196392284              2.820114069716318
H              4.277346123925848              4.121248884742602              3.0325439465535835
H              1.624773315383638              1.9080873495799984              2.848168786585544
H              1.363749514339903              2.254967672971721              2.2407683651079506
H              2.6109534765992              4.418305198728177              0.24521308293826588
H              2.086952616323872              3.986670890521734              0.5918612950711866
H              0.7990303243781303              0.8960194856574483              -0.41170294737919194
H              1.3334825837342592              0.972930645306206              0.01657186918678612
H              -1.355861330481454              -2.0737073440297538              -2.2198909738679284
H              -1.7630891569975629              -2.4614368917040137              -1.7339774120871962
H              3.6814459146172913              0.8235095458470517              1.3478429596374384
H              4.248966860739481              1.318684681991357              1.0647405777295142
H              3.856269823721933              3.803532471062173              2.7233591983778043
H              4.267391275903599              4.140030506292238              3.2025450875029042
H              1.3206168625202102              1.9812800280666887              2.771269654024384
H              1.841049894617935              2.280324660534788              2.228428147414519
H              2.408504225182757              4.354609088007639              0.4276530865200874
H              1.8427162022408556              3.8395036179325817              0.3590190718518898
