72

H              2.1544183931669343              1.374594188024796              0.8912423629187234
H              1.6466506612527547              1.8989104558849283              0.8954825590733128
H              0.6654169725027747              -1.1678841847540304              -1.9530599948384306
H              -0.10505092924995196              -1.232450535027783              -1.8535994322352032
H              5.029712959373336              2.144308929670395              0.7714436689026437
H              5.240884573682399              2.487824384378282              1.4466139788688355
H              3.609709043266994              4.695007342356532              2.69409734025435
H              4.312124477309993              4.659747848275007              2.865219412890488
H              2.604462250286953              2.485309718660225              3.4814430734941615
H              2.892438238461427              2.019290233897649              3.894710584429588
H              2.8429932008291376              4.528663392016732              0.5597489216441618
H              2.8021369935765406              3.90222557269023              0.2300910547618478
H              2.2961262258519137              1.379951983467729              1.0793590182002268
H              1.6122006777930067              1.6724605665590146              0.7733050868337402
H              0.4010407394200625              -1.2531832180076379              -1.7588484580399184
H              -0.36134395799017266              -1.3748184317736574              -1.894903981858663
H              4.957023402426883              2.17063823845416              0.797239812816957
H              5.031486207754452              2.7388528805819723              1.3714448333003708
H              4.0437933548696865              4.396258087251803              2.499041936636184
H              4.189386938904005              4.70409677352476              3.213131534871945
H              2.4980408964052545              2.5871898718801              3.667106411470395
H              2.841847527550004              2.0741227998285017              4.207811414177366
H              2.7128450484163373              4.458632088494512              0.27968698640402184
H              3.0187985616951503              3.8142390600238962              0.26481011961809103
H              2.211910852124807              1.343774787258764              1.221320382996685
H              1.5151940464782447              1.3251948896216448              0.9939916554000182
H              0.08705242771451123              -1.2678327827790987              -1.9856462875084633
H              -0.4720880606922665              -0.9319482845734528              -1.773152196842985
H              4.840770447904516              2.341503593670454              0.6873731039582145
H              5.1834154873088405              2.3478715379029667              1.3668450762019693
H              4.050879350554209              4.627024590816659              2.5028780953882004
H              4.1241980937780305              4.798528634296382              3.193352786780479
H              2.274638130146284              2.046492743129507              3.6741703831841135
H              3.0196691807478295              2.000438720051036              4.051538902313317
H              2.6701864409212788              4.450911150872771              0.4188555364162747
H              3.024393083040518              3.8037562924587967              0.48188112877189676
H              2.215023405503206              1.4386227339998605              1.1961727140927205
H              1.47734731857576              1.54236104435004              1.1739617029018528
H              0.22603127576035917              -1.1365952628746927              -1.8427565107567252
H              -0.2876055281346422              -0.8126608929820843              -1.4522611837252524
H              4.688392720313153              2.0388154665255533              0.5589797782345964
H              5.131599506245028              2.3878764257316245              1.020756951535907
H              3.8404081233848695              4.4781889232067185              2.6422430381109536
H              4.185407106645013              4.829813178810932              3.2180109484407526
H              2.2976507026212505              2.366886283436006              3.6939532056334743
H              3.0725829799675752              2.3151370841123833              3.695359569813288
H              2.903510371858785              4.5118759552921865              0.3325898219882321
H              2.873551419025325              3.8849412313743956              0.6968831875516114
H              2.1522707077381846              1.8998124947415151              1.0715371672285336
H              1.4920300318832411              1.5395087885189958              0.9900870490102058
H              0.17943025365173929              -1.038714582316822              -1.9011429119211456
H              -0.4657330132713274              -0.7524674769590876              -1.556998365192942
H              4.606234407045337              1.9831447874769403              0.8023470265973305
H              4.974857910891967              2.3247219618457002              1.3609777271910484
H              3.691288046118053              4.828975146821336              2.458167895422365
H              4.132546752755761              4.873628848596087              3.112000206898986
H              2.6305227394148156              2.684570779055106              3.723895772937928
H              3.096290061761846              2.045075302613692              3.6404913462313218
H              2.662226011387623              4.31195616631045              0.3008643925792392
H              3.292871237347708              4.007952550552373              0.6116138592448264
H              2.201386581849541              1.4826941170169448              1.2439602513895482
H              1.9398960959502605              1.5684902186527818              0.6062837019093841
H              0.4028979022316081              -0.9800376431837658              -2.217298224792342
H              -0.24101345210609007              -1.086756804707102              -1.6791182810298098
H              4.831366595209786              1.9298095498662255              0.8552782187778536
H              4.791875108305846              2.556192222340417              1.421148602491074
H              3.6479794534783627              4.848205420310524              2.4328192612925976
H              4.046731066047684              4.797705297484905              3.005819316223459
H              3.0107070772987807              2.619705487927804              3.6297078817908903
H              2.735400907126866              1.835600303385005              3.5338118929781017
H              2.7457402023040953              4.555396731381975              0.3091953213330099
H              3.0731769487952163              3.8836800488302576              0.2729255435534588
