72

H              1.2735768556370706              0.8597994203814918              -0.19628439068773942
H              0.6547703678142666              1.2189108726245363              0.08828614754801642
H              -0.9756486722588134              -2.292435472154207              -1.9183555888100636
H              -1.3978240938023059              -2.7039933968800325              -2.3551131971819874
H              3.965376200475024              1.487069806138              1.541027640679228
H              4.303921432157581              1.6191372939951565              0.8935692645523865
H              4.259814260512723              3.573455772118663              3.4561980510208903
H              4.298096543657064              3.8266306363114237              2.768291988651728
H              1.648810391041447              2.4213438649594456              2.6498170476215934
H              0.9393732921802708              2.387517302602609              2.422060922875879
H              3.087054857967499              3.6762704274095643              0.32642197524778216
H              2.359065543022146              3.569650039936608              0.12942494750412084
H              1.1472065070609883              0.679204542249642              0.04868328581117873
H              0.7164722427605296              1.2244042619215774              -0.326265991071885
H              -0.7689746184380795              -2.6687832369827045              -1.927056504482163
H              -1.4828788637591235              -2.6489059103401007              -2.3472256064571497
H              4.191446529301514              1.5093134086147855              1.716777565063638
H              4.588432609407311              1.7636771236375492              1.139557290826803
H              4.108605541207932              3.537861012933188              3.450963465081032
H              4.264900934865563              3.7039263078948093              2.745349200659166
H              1.6556777826836393              2.153978992505135              2.32104668459282
H              0.8788516865182743              2.3578233853526287              2.196147564912781
H              3.178945901166087              3.690013958782348              0.03694509036318107
H              2.743446024171286              3.549902992912049              0.5690630348734751
H              0.745851835746786              0.9544208784980013              -0.5389395404123507
H              1.0917876788271903              1.0723622973952478              0.058456180080409814
H              -0.7553578628420206              -2.5855629795536035              -2.0630788965398064
H              -1.3762244977779663              -2.877216671787821              -2.364433405675942
H              3.757496191783704              1.4661161655894162              1.5912062633912476
H              4.387129742775273              1.3401424770606267              1.193076315315668
H              3.9950993685901217              3.328644979688436              3.402136711801639
H              4.007492411968655              3.7773281843511466              2.8661317665335138
H              1.4749421820652453              2.0924727722528513              2.466192976815993
H              0.9597344407608303              2.3746651315911578              2.0448555185907646
H              2.9400954853767454              3.379113335903254              -0.027191906433239977
H              2.568072060748568              3.5054818502504475              0.6023450061222784
H              0.7576269302866739              0.5944175881259446              -0.1614082433757359
H              1.411849572723687              0.9328014585519789              -0.0371395723549731
H              -0.9828132596655735              -2.705147285630665              -1.988336685222591
H              -1.5069974053177724              -3.020384418564407              -2.3324976793035788
H              3.6866717666983257              1.4609609994336468              1.561107242060238
H              4.303999827327512              1.269144613877884              1.365785283712421
H              3.931251677861831              3.8689467704670086              3.2672804107134366
H              4.380173676991426              3.647058190586006              2.7754958827465734
H              1.3083349396910418              2.0832339898867747              1.9951370207620645
H              1.224428930651479              2.2216355086893387              2.667326858689431
H              2.9502671482930474              3.4465710124714124              0.23843906569165627
H              2.2627231573269007              3.746143912643948              0.48738252590610126
H              0.8820804017642281              0.5659992955827042              -0.4729769019296477
H              0.9203638152258823              1.0360132556002228              0.17947395055673981
H              -1.3496065548200957              -2.6831289787430674              -2.1745927406757333
H              -1.772446625618343              -3.1832553534354733              -2.5056872947388387
H              3.958096431242266              1.2156158455424977              1.538151019268053
H              4.6193632783949115              1.4331154352682458              1.4067206351641797
H              3.7328079650185724              3.7319068912278257              3.4839866077573567
H              4.134013948559151              3.995248782760063              2.870530259447426
H              1.2960030167874868              1.904521451047234              2.318472232058748
H              0.934598863911554              2.51695822797928              2.6319827542617693
H              2.7250218793955754              3.7929846470070094              -0.055359274321918894
H              2.1929552148808398              3.503172491461726              0.36151372771178253
H              1.3123965524837895              0.6256899473818177              -0.39727249493062994
H              0.906541121767746              0.9218284563149756              0.11049100429582184
H              -1.1041389561081638              -2.5329370130743123              -2.363226452856441
H              -1.5703885997046814              -3.0117489450467505              -2.3625078754287046
H              4.12279483709636              1.4087853018108683              1.5440027490568335
H              4.621846000698755              1.3971332614340737              1.0141728976809052
H              3.888479176780453              3.6438818634749452              3.374536648435192
H              4.075859251129899              4.05013795370172              2.7826781163148415
H              1.735883260475675              2.336819036685207              2.243729334186969
H              1.1512200041583658              2.616079185828232              2.35818822907821
H              2.679385728937142              4.2115494174607475              0.18948852646635703
H              2.2684270336376167              3.5566444607052605              0.3171047701527512
