72

H              2.273385774770794              1.3519656738336159              1.052623037245658
H              2.0327849630669172              1.9910491976614204              0.7971235525488929
H              1.0570647950088097              -1.0953997779469853              -1.7307761113819289
H              0.35017534576672993              -0.6449049282888146              -1.662166737613672
H              4.79231675336182              2.507555915312055              0.9788408183088004
H              5.090457497752851              1.9509238257195227              1.3118783305585375
H              3.8312407409258773              4.685126770975894              3.1669449942372183
H              4.56453850916585              4.795834188259881              2.9756248687983544
H              2.976826446632243              1.7466395088063051              3.279705454096397
H              2.7465383006734436              2.081839073911691              3.9836066299014123
H              3.147129456838508              4.174463531150478              0.8949497371371774
H              2.935904333200257              4.154514853274513              0.1577305473277357
H              2.740347357250584              1.4667212458004684              0.8031670816049695
H              1.930771361864888              1.5726288178821237              0.8502282910117777
H              0.7527804122330765              -0.9585280014708067              -1.829672987272671
H              0.108261437212306              -0.7427227509452129              -1.781655814731039
H              4.758721600612853              2.5126378153272113              0.9545240713371634
H              4.952938704747615              2.031379487232827              1.4954537847601677
H              3.742214744306911              4.591063081248225              3.026024349424443
H              4.442407563438867              4.8059280757574765              3.045239214579209
H              3.1110135395454814              2.1702298561306566              3.1563008788566993
H              2.849999535170741              2.2863251016402875              3.8463655135821995
H              2.74805272877958              3.805230196382875              0.63568521104658
H              2.803928677111859              4.281449218261674              0.07593601909338765
H              2.7718132933912596              1.5965305701694839              1.0749554962820795
H              2.235235762977701              1.648067956599375              0.6207594359921709
H              0.6957765404384113              -1.0276863490830335              -2.168159902288861
H              0.2804907535444326              -0.44599005266990377              -1.8829649263996404
H              4.569729426642398              2.6153013137669467              0.8315690838552331
H              4.87525660452927              2.029104532177976              1.3391318349984744
H              3.709161003511944              4.495741187561691              2.748392177341899
H              4.273296663873836              4.814454963188451              2.9828398897021278
H              3.0717267936846016              1.7918118208377405              3.0879135339659283
H              3.1719621622379237              1.9209758917481228              3.8001376160626794
H              2.524518805759524              3.818285258401974              0.7060172497459828
H              2.672987769226014              4.256531635091105              0.11359254755099374
H              2.5611273648723847              1.6806596659065616              0.9594648400075575
H              1.8601188704206644              1.5414301131935484              0.7923153347729216
H              0.9550118156850587              -0.9250717396888837              -1.928070833020578
H              0.7957982308540352              -0.17339490614954575              -1.7270142335314018
H              4.732120386291934              2.455602455385397              1.0759163715840938
H              4.682694563937531              1.7132529929668077              1.062741692281132
H              3.708884722171075              4.547782280965902              3.1368779715347745
H              4.360053587486496              4.461164337698322              2.82704338428316
H              3.1789422228761963              1.4876228867837216              3.301377645195805
H              3.1590603898448086              2.1577246643235783              3.7253555629480526
H              2.4789765809554303              3.930395354029815              0.7209829505147315
H              2.6706456322353866              4.30373849892171              0.06713284002163769
H              2.324446221588568              1.8870923423991766              1.0975755614811327
H              1.6784856343724504              1.7717136797000612              0.801504521303112
H              0.9068403878695078              -0.9205234915026672              -1.702764520278286
H              0.787583785556771              -0.23998872652222047              -1.6478552061623117
H              4.716706798742183              2.426998589281693              1.018109604867535
H              4.702029302635534              1.8437762792637187              1.4737587175611233
H              3.8974098827780415              4.587307648194496              3.1225473230102416
H              4.617849435188388              4.597744788541406              2.903473687090507
H              3.6748872812678504              1.6885391493872313              3.5226393903837567
H              2.9673835339465695              1.9422210287588018              3.6177454192610714
H              2.8145613300951147              3.9346063083682186              0.49511814823724837
H              2.995044299198207              4.552401648335964              0.10064112259154501
H              2.245057954624628              1.3512421521176299              1.1365447091803595
H              1.733790490341856              1.6406772870343642              0.7049259262935543
H              0.8061681195407735              -0.9357416995570669              -1.794113865163898
H              0.5718657231584485              -0.3158002505547253              -1.6649350742887334
H              4.70223005142255              2.4565991338516837              1.0243872509504581
H              4.663475669135056              1.9226430526428981              1.439400315844467
H              3.834594834634863              4.7951215758345125              3.1992233422668552
H              4.528061874994227              4.6557477719910985              3.1287397497857237
H              3.5706963553823132              1.6380976364662594              3.35727324086861
H              2.749496396732759              1.7655434503649774              3.6925784703354996
H              3.149778925708736              3.8094744956455595              0.43740411612510277
H              2.956937956445228              4.456976987215858              0.12352921876549124
