72

H              1.4957577305033447              1.5966190837323024              0.1980728566031294
H              1.4162802987710632              1.1772808795909115              0.7737994984710077
H              -1.5368536134722826              0.004640054470703381              -2.085440929588724
H              -0.7759521231872815              -6.538617521046994e-05              -2.0192055103816644
H              4.40750965439355              1.6457754373737394              0.46325994167722057
H              4.356559579482211              2.4609189666313234              0.3860733118004266
H              3.4628836731938177              3.9897554856509903              2.624153428899564
H              4.025076646821131              4.553694622124104              2.8757200433151784
H              2.131013312235989              1.786118608046562              2.733490038502618
H              2.5576979546144067              1.5823792897184434              3.2739617360729376
H              2.2951044639765574              3.9849338671967445              0.3370580674793944
H              1.9905774086002612              4.47734591315678              0.9303572878637866
H              1.4652442489676636              1.8899634784489485              0.33458964773801814
H              1.1566833490149204              1.1952954667457403              0.4944133382568333
H              -1.3974565128915293              -0.17695753668841174              -2.369028464415929
H              -0.6865883790780136              -0.07225786438418194              -2.2009598003029702
H              4.098404013760824              1.8927824616942424              0.8693973536107636
H              4.601635079871699              2.2394597838771557              0.4783392212554354
H              3.351967595118593              4.107559515243349              2.8004414607694748
H              3.9590176938224086              4.5469863079152635              3.011786557118781
H              2.184197875504645              1.9440949988007035              2.5353586802724446
H              2.5726688112840947              1.6109373259819881              3.0189135533613034
H              2.4241659310961405              4.2592102887427945              0.18050570675990565
H              2.062525943589847              4.356171227739982              0.8141779661013232
H              1.6924168715301704              1.5670233190034395              0.11075075611961357
H              1.222865897080553              1.3079236864539605              0.5738801306191105
H              -1.0264161822945643              -0.257779532335439              -2.2857437259981896
H              -0.42401243972601244              -0.02912750458810826              -2.341268288534848
H              4.319469300831438              1.7864149981070179              0.8645553839044143
H              4.484744807824317              2.5491108576235866              0.7332684712729335
H              3.5385205301581895              4.080640437992232              2.7969773418868624
H              3.814823929860412              4.803102172265502              2.8850060779234004
H              2.034781205391359              1.8757449716218262              2.55195055729562
H              2.575967067559169              1.837349854494521              3.10200891776283
H              2.4810802635708074              3.9728963661476606              0.22893103212510113
H              2.1387927635844117              3.9613450380969653              0.8550263150982317
H              1.4235156423831186              1.9414829656118537              0.1563709155660261
H              1.3524884443707046              1.2468865395093187              0.3999289116314316
H              -1.2409663174625163              -0.20956933346871842              -2.390355970114418
H              -0.479691442191933              -0.25800290973012546              -2.3330898289256736
H              4.77153741016745              1.7671658236712287              0.6066610524587811
H              4.702571518552653              2.5468896658395037              0.36564765969304014
H              3.5575556221701534              4.304332330517815              2.8569894669702887
H              4.076422495233242              4.769343496835541              2.6580219353374366
H              2.519959862329594              1.609413822194984              2.6294682899274067
H              2.316217957891092              2.1701371941092535              3.0775096437094445
H              2.606841420461451              4.04395101324016              0.5270439678029564
H              1.914903164368938              4.2843141100887              0.6738722189493854
H              1.5987100975797501              1.8572155434551891              0.18588878047772536
H              1.4333913646639103              1.1980327128603954              0.24341302206882837
H              -1.3425490495835668              -0.13652757069400104              -2.2224362608614237
H              -0.6240760099758483              -0.4104094735915778              -2.270034701018158
H              4.1042180048242916              1.8180204495010128              0.4583671498206864
H              4.5747931917161875              2.371449704864361              0.7281411363161409
H              3.598713891871725              3.9387308437543576              3.063825786750137
H              4.000615656545626              4.535676442834733              2.889018604059902
H              2.143003019631101              1.6209224315020694              2.609115173421387
H              2.433667827132138              2.1134969535786725              3.2157885082693296
H              2.2716006961771846              4.308772002512964              0.4283420411859324
H              1.858073824692682              3.827653870352595              0.7957100303948114
H              1.4135205337884573              1.5949875569614194              0.1112010410927487
H              1.6039483644236345              1.2193668547273426              0.7680765479081417
H              -1.3444492087556914              -0.16334920527241717              -1.900808669272308
H              -0.6378607931652827              -0.28030227571634925              -2.2482491657560018
H              4.451723569953251              1.7112966548297743              0.731974395335586
H              4.576475434966909              2.40354499099397              0.7278926271656937
H              3.809513687613309              4.003527908450536              2.457004055832238
H              4.111837814551747              4.447811757862675              2.980806663910017
H              2.0109719875090173              1.3208431954343918              3.0439039938460186
H              2.439622096818857              1.802031274344078              3.1276180310747512
H              2.167773410027859              4.201138430561639              0.46741552494562094
H              1.9850266315704717              4.3185758510454875              1.1545258995515375
