72

H              2.336783767958205              1.4735191705142308              0.5407497293131089
H              1.7286991417134576              1.7420999245957651              0.8277612771025666
H              -1.2146837802109918              -1.3064193867580358              -1.5924757920448722
H              -1.4142290910280215              -1.6063516076808302              -2.3668515672018025
H              5.194913927226228              2.3484161630053464              1.444625869125568
H              5.113691747795112              2.444016316779945              0.7527576408893685
H              4.711466894930813              4.609016567311839              2.9188420052199726
H              4.4449730495671735              3.949760782695756              2.81708252190747
H              3.172904946133985              1.7395020965827779              3.7698677043105446
H              2.577161664386245              2.2731380886550134              3.4290749619329617
H              3.1770243077277014              4.7829306474622335              0.6621216019106164
H              2.9124447489229945              4.310018543241217              0.15050515694811362
H              2.278672663314626              1.1281276592344247              0.5913543979782805
H              1.693968143263595              1.6226593176378565              0.6940978156501759
H              -1.4103475636296943              -1.0810286848551118              -1.78033241593401
H              -1.3016503809738813              -1.5324307109083586              -2.2879288761442726
H              5.316210671026831              2.449596863824191              1.3774125004426747
H              5.110781037780409              2.567088475069356              0.7344267123476863
H              4.51391459017009              4.885443105464506              2.7091242466374044
H              4.588343703353727              4.1731161763988425              2.951588878906425
H              2.937268791436839              1.903436490803055              3.945080933355985
H              2.9390259970582195              2.668559736071698              3.62480105025762
H              2.9604640355224445              4.488000362554041              0.7447485231540605
H              2.6442241425846325              4.372847941676535              0.1014929000173349
H              2.5099907170599316              1.1445798469737594              0.8059992579852208
H              1.8313875484786777              1.3686777025038408              0.6337170343254688
H              -1.3054434474784016              -1.1213112332510542              -2.0717777904531838
H              -1.2068062835315951              -1.6020724436121385              -2.514925428640531
H              4.986377768014941              2.4721146881898286              1.1448356911082644
H              5.235614988964728              2.578888258749512              0.48158894432751853
H              4.222294085223543              4.9829789200026795              2.8816584257461884
H              4.410165736375983              4.306487390809421              2.8582723127292247
H              3.370383843971778              1.5428397578595474              3.5827456089712544
H              3.051797641396062              2.213604371867533              3.5693783622896356
H              3.0258843353316074              4.50638589529264              0.5878006335327535
H              2.3808160759292525              4.3228186996957465              0.33766039886758464
H              2.4337461672147187              1.2170063147670733              0.7533726935091792
H              1.844214819499186              1.6173899609585383              0.7106118636489906
H              -0.9544005559008459              -1.2735214999925843              -2.027753841440046
H              -0.7681524248558403              -1.59424078157783              -2.639090385871419
H              4.955204689380245              2.339637619390949              1.2433884668734172
H              5.25109761998469              2.2863930005265685              0.567895963629639
H              4.0872055714692435              4.7944345041596526              3.135399930428879
H              4.375135385732512              4.126291106296197              2.9601378800354983
H              3.1574527803350914              1.7437458329437467              3.7397682291624177
H              3.227524694279386              1.8023620452779476              2.9749919174142763
H              3.169303385520894              4.308722496197993              0.7196229048385154
H              2.6001723642563883              4.09632125044816              0.42483265554426747
H              2.2446994575652157              1.4539446953503385              0.8733939707212048
H              1.9874031995211392              2.129586710333759              0.6315808276349762
H              -0.9284419036060286              -1.4341788206649355              -1.7132050473225462
H              -0.9234405797277943              -1.4229798136830216              -2.451963291881501
H              4.762112092207255              2.1738981275371443              1.274222673770163
H              5.076557765739454              2.4975313217019277              0.7244622334159231
H              4.473785119967362              4.599787011817861              2.779968766371546
H              4.692997679424999              4.050147056793969              3.26267689234486
H              3.3336278904527004              1.564171321056344              3.6042638736010266
H              3.3226548707740147              2.2072545145588425              3.310314306607071
H              3.2296992676539578              4.653098609890215              0.8880062570986416
H              2.8029612452455197              4.379688310750213              0.28312888571233963
H              2.10031548828659              1.6913050227104482              0.3558450280136556
H              1.9468684334423794              1.7715989078435534              1.0644743556353902
H              -1.2031412131976635              -1.3603236602006643              -1.5990177193902735
H              -1.4762507780653775              -1.3641900146743595              -2.329741796709237
H              4.868810671243905              2.124112176336489              1.3190307194560222
H              4.924571299227457              2.5223793893497195              0.7507178240305769
H              4.5954823734209915              4.639219835359669              2.7048175832167884
H              4.624060734509528              3.9979515306456657              3.0129302481846083
H              3.499240125867501              1.623741067432459              3.6784504182468063
H              2.9664466628865847              1.8377640326159688              3.1823513430814194
H              3.1733775433916813              4.622909279725527              0.8097155650437278
H              2.7854702472120665              4.258954447227717              0.2549616905836809
