72

H              2.1717093763927995              1.825576471070435              0.24838580353280493
H              1.7042639403302537              1.942830269858812              0.8331942044222151
H              -0.5478758781576443              0.14372677586724983              -1.7663773605982727
H              -0.27252614301414174              0.2515975310857313              -2.3081898323259633
H              4.398391280822915              1.9454963297851977              0.9993369983603466
H              4.386378311139902              2.5238406315333424              0.46007323280387297
H              4.254097428540631              4.524726601929195              2.812082259505879
H              3.998954293507293              4.032709718201415              3.3273686311042616
H              2.823112077080476              1.0566027607269737              3.3771133477447366
H              3.2146982903475507              1.6665788039504799              3.594992002543585
H              2.42516319084776              4.597261795104518              0.03861851228848256
H              2.624587849130307              4.558202769925155              0.7272447011026558
H              1.9958797078280635              2.077398179596473              0.32158700544357743
H              1.7846053701817695              1.7944024212790677              0.9414137612870642
H              -0.5210699644436178              -0.03622547111106789              -1.870332029363625
H              -0.04566191876256572              0.512506555124593              -2.2020979676896704
H              4.924253576095306              2.2161101146729014              0.8222621740935561
H              4.241971935353531              2.4956224312216135              0.5781685076160813
H              4.116519690026537              4.68001455585138              2.725448130902338
H              3.9422689785529523              4.174870290963618              3.2292299944866523
H              2.9584990801360855              1.2255362936356613              3.2700999846475427
H              3.1261228888017043              1.9611633765205099              3.313350925251616
H              2.9945709701836267              4.325975872976983              -0.020704959754204014
H              2.6612585051560056              4.60879308347209              0.578148633089178
H              2.1799458074172278              2.099733135984377              0.41134242574689317
H              1.5635727619759077              1.6472497511297222              0.5184519810767698
H              -0.7155111616085653              -0.0587005312491987              -2.328816485801429
H              0.007884545231663213              0.27398797380214784              -2.2657189564026474
H              4.712809170004199              2.2333169011099403              1.0472595768861899
H              4.559981287519935              2.498894700109999              0.29991226690500156
H              3.8274090439424193              4.491877542703057              2.7693567172431535
H              4.008285765570744              4.534871705037195              3.541750788357999
H              2.862624230726704              1.5049730219187396              2.977387842626378
H              3.3088867331671623              1.9987586358434901              3.345138868822828
H              3.0745196688114174              4.528639480237843              -0.060784117376392166
H              2.566749617068847              4.322106845412041              0.48106326442259906
H              2.383005578314787              1.9005524687157584              0.25293102805155065
H              1.8869479951754793              1.5788124527692045              0.7367164464711259
H              -0.46131469048989665              -0.29719980535926466              -2.056799293744629
H              0.040746965007929306              0.09998491230153754              -2.3034287462296845
H              4.4445236355224225              2.076943187256209              1.0716816571395844
H              4.525602247091509              2.630666105152302              0.5242854730775279
H              4.114690840732572              4.450320297094631              2.753297558892465
H              4.0027983147166655              4.494656880126442              3.544253955890534
H              2.796510747832841              1.432895925142171              3.436751434838385
H              2.9452793385116474              2.0906524885023026              3.101289179071496
H              2.7740991636476395              4.732993611415561              0.10060176934856192
H              2.6652632135717957              4.105700574459748              0.4863258283827203
H              2.1900180508932854              1.7998338829523648              0.2413358775601942
H              1.951115311719179              1.669717016551588              0.964296150612999
H              -0.781364514095707              -0.11558535382966059              -1.8892949915372825
H              -0.22929630466681977              -0.04546382041314232              -2.434268460433929
H              4.970197478398988              1.9276749316494153              0.8622276711319886
H              4.731627286564442              2.6613262290962876              0.5935299479653405
H              4.1794855022919855              4.566681679897732              2.664105307831374
H              4.117982212903771              4.539300612471703              3.43731046443653
H              2.6342418240294507              1.5202103788816153              3.255044800434622
H              3.1341344353388743              1.9828038062426798              3.2022030471680054
H              2.89844143862831              4.575999357717912              0.1515438418870216
H              2.2995400810081588              4.395261555484033              0.6116175574529488
H              2.0847278924721557              2.1611929570970343              0.08258294274206213
H              2.174843509756999              1.7957197252559642              0.7626428148420469
H              -0.9079302418231748              -0.048719688797440104              -1.8922462297769567
H              -0.36943251137536187              0.17141828647686563              -2.4361782971466655
H              4.7547970491726845              2.005584916901148              0.6597075027673694
H              4.50787828900318              2.468760227237123              0.16831640842130266
H              3.9950961682213717              4.537405960986969              2.7340362048972375
H              4.109689945032816              4.200971093888539              3.4179448670318395
H              2.4654137273539547              1.4572855413026915              3.4765827291397366
H              3.2851259969750513              1.6217166166479953              3.348690721181618
H              2.6586557800097537              4.452785770559122              0.013521089453193426
H              2.260127252132366              4.344799680843831              0.5947032867315959
