72

H              2.3190985071362737              1.0368442014513624              0.9223514677970492
H              1.971774471304193              1.7215181264540949              0.8953670495754706
H              -0.3476914536361413              -1.1193256536894258              -1.8981196859272562
H              -0.5285354476270337              -1.6032620739308128              -2.33473253190418
H              4.767353526113474              2.4228557486808255              1.4204337676376801
H              5.139777061670204              2.6039214345516686              0.7943889492512549
H              4.13747298727138              4.837596344613218              2.7707295520698314
H              4.355462680311364              4.17971719729573              3.0849291674365555
H              2.892187126981314              2.062262092024586              3.573497664991216
H              3.2265155127041067              1.8697843822993125              2.917860367796764
H              3.0697716236269685              4.5217456450952165              0.3264058241226008
H              2.5759182037765047              3.9617049778417273              0.40362792275751375
H              2.0830798771097054              1.4871615702408636              0.9947242267878104
H              2.019594677771246              2.1952371836774076              0.873920824993209
H              -0.496562625223064              -1.4232788997904338              -1.6274002069382876
H              -0.8351095648564133              -1.3308958716714825              -2.33039061897628
H              4.6999933674612              2.18243886319276              1.4384517464323756
H              5.0886616190378895              2.6907622214391935              1.1584934196128127
H              4.362976215435404              4.684224662320828              2.613788745909344
H              4.58722689951404              4.295204894696831              3.164192466510216
H              2.9849401055556357              1.8651143213945374              3.7929260726048644
H              3.207231462518924              1.7824148367419914              3.066871501025532
H              3.0065866825552785              4.705438344400814              0.5092757615963782
H              3.0193294108267508              4.01543357378825              0.2857778871206149
H              2.279110671192489              1.365582673835479              0.6816495209703266
H              1.943877445693806              1.9169686358095543              1.0573112220002436
H              -0.5805980637039735              -1.2656616439342099              -1.6778644595687517
H              -1.225162693206675              -1.4237122647676579              -2.11651246625323
H              4.824484796907494              2.03495074790278              1.3599352668703955
H              5.00635521121473              2.802394415299552              1.2504440464815625
H              4.659720137723152              4.7637610335610985              2.6207877820076657
H              4.516123531178062              4.211065043850218              3.117343440902765
H              2.9238749632876937              1.7223787728810527              3.7596788399480032
H              2.9671065935842296              1.8432512033765283              3.1080013317045547
H              3.174360219780334              4.549957730261116              0.2806532313395498
H              2.7673275565800863              3.926375812124847              0.3997531160044424
H              2.1008914720887804              1.4801088461684055              0.6764799387033513
H              1.799580198967016              1.993079024071801              1.105978272385236
H              -0.6534800615980549              -1.222217592237732              -1.6132454543912715
H              -1.2312532396295746              -1.4110539759815737              -1.987634828578815
H              4.928895524966738              2.3908467225386345              1.5151417025031932
H              5.203517985766073              2.7047976471148205              0.9610047428546301
H              4.693856283391821              4.9130194674158965              2.698796054964136
H              4.477378115010578              4.253666626442909              2.9134963776522445
H              2.754341273299697              1.7415597042113444              3.6873204259946517
H              2.6973552880823473              2.349086658726767              3.350964935674075
H              3.1152551018716825              4.6886816835349645              0.523606364812755
H              2.9352628652692836              3.984700162912277              0.44482630130738277
H              2.2926634997320696              1.1529392893349661              0.8880790210024198
H              1.7001382784633379              1.5636181268756437              0.6832225781214512
H              -0.901795734291362              -0.977312225111978              -1.6762161406755227
H              -1.1908848658171542              -1.618431218628641              -2.126604090713738
H              5.1197457351610804              2.3696140022858043              1.4803160875104664
H              4.984415732099466              2.7715577177136645              0.8484660651969629
H              4.459851394178999              4.909121301383084              2.53263560821803
H              4.2796448605343596              4.41026327797255              2.996577452103713
H              2.739174800438966              2.164160859186489              4.031614758851485
H              2.7845540426721147              2.485838365123277              3.429905857919729
H              3.0533215828973193              4.604178991184267              0.3815978692854194
H              2.714349790800781              3.934312749358419              0.19192977437736722
H              2.497238790179717              1.3415561651541101              0.9385737706945467
H              1.7894543752573102              1.3394249907434599              0.6497861303338459
H              -0.6958432183011075              -0.9874152576285373              -2.108653779433154
H              -1.0554115130309558              -1.5592971426486446              -2.3874176773653324
H              4.853264733918837              2.35757564580053              1.3734459090186786
H              5.370933325647126              2.8110987065139463              1.1624202786997115
H              4.125570382837753              5.17292594838108              2.6210415258165027
H              4.309771837140535              4.392714353112318              2.674132334058731
H              2.8241104896553164              1.6263406102866558              3.6596145643107723
H              3.127363162473213              2.1468183708108883              3.3281899003620166
H              2.977400588310221              4.420287765715477              0.2707481437087892
H              2.453190370555348              3.9285341770119526              0.5439144819048312
