72

H              0.8647993168464314              0.8439970718132446              -0.2916258436898689
H              0.8561860439495284              1.471692552173338              0.10697869708085293
H              -1.4420686850262827              -2.126600736634872              -2.109779755115798
H              -2.1242288786898103              -2.1484203400531467              -1.6913846312361864
H              3.5488037215083876              0.9710479556615155              1.1133636772292979
H              4.098136539199404              1.4913083289494595              1.0536709433293805
H              3.5931137916170006              4.036934515107554              2.6453403617945854
H              4.294591092136561              4.08484587272088              3.0353562432368695
H              1.6264387083766012              1.9091542837504472              2.818909150487942
H              1.765105416816726              2.206921059526839              2.199286324831334
H              2.5401759805186277              4.060835990561128              0.3503453457878661
H              1.87752348475035              3.9631643314182075              0.04521777730725814
H              0.6680899129240462              1.0637539067511452              -0.31787802013493455
H              1.3387913423694433              0.8117207782243168              -0.22429116043418282
H              -1.5100086482516113              -2.2362252894652985              -2.381316103761706
H              -2.0475840601206814              -2.257018644320702              -2.053632095433248
H              3.7767930427083307              0.9586863098667373              1.1877823728708572
H              4.402938935743226              1.247538291936625              1.1359185309422701
H              3.6667368923844426              4.211361785109738              2.581163669928692
H              3.792115295095712              4.015534284934284              3.300097320659537
H              1.3707385105011571              1.873260302644219              2.4793098444623123
H              1.8671591754862704              2.4615478867537024              2.446469536483763
H              2.473685221726403              3.974307303175629              -0.16831676235356802
H              1.9258228041975238              4.075809625088576              0.2919285627038727
H              0.4380163748276833              0.9470991935639836              -0.38875089435820526
H              1.177039285940425              0.7711176202301251              -0.23326108072497956
H              -1.1572363277252284              -2.077843267940012              -2.4639273092346206
H              -1.6446747699264108              -2.3243290595495543              -2.0504911747199417
H              4.087322701344865              0.7343792330355838              1.15038871710432
H              4.262998626413583              1.4917440037695002              1.1211505980045504
H              3.6466301694576053              3.9417369375236833              2.561917924762564
H              3.789600082187213              4.478463741885796              3.1819592451558587
H              1.6476730057046363              2.1354399327251796              3.062996294035598
H              1.4013212116225298              2.207411016311894              2.3825558303009813
H              2.482094853866749              3.939358689366457              -0.22458173254215966
H              1.8619404648056728              3.8947027272957553              0.2035492623214962
H              0.6955527589840863              0.8673871233747616              -0.2705220260993672
H              1.3002184664919119              0.6257972471073998              -0.6271000876487692
H              -1.122118133007535              -2.0493482746523908              -2.503571231058619
H              -1.7155175746500062              -2.325140571387391              -1.9965537405437577
H              3.7407190126415357              1.1790876693163193              1.2233258260942053
H              4.187709908260857              1.49297380304942              0.7281718543833903
H              3.6654165240055985              4.0766655379139145              2.5837823130970183
H              4.240692554303256              4.3360989795361435              3.0114988164869185
H              2.092635985550369              2.2771638201610513              2.8860300368950687
H              1.6914400112069505              2.1091162677966957              2.3558058200637757
H              2.7405223536691117              3.933023792533609              0.10836115895299166
H              2.1036102363440485              4.184712186170862              0.37068179587177463
H              0.8707911552391048              0.8538295096493631              -0.08591689847748482
H              1.1100807385241656              0.8285569106542494              -0.7791664974493234
H              -1.1157978466844467              -2.177824887297473              -2.2403430411642375
H              -1.650362718610486              -2.2580127285801943              -1.7653967450533736
H              3.729669076425279              0.950093180763289              1.0387556341044721
H              4.107203714082723              1.642556975566706              1.1216165511772969
H              3.735107030849416              3.6730990333840703              2.726898250335823
H              4.205433930178546              4.031131621531303              3.158718422975588
H              1.6105542474592949              2.003028778948242              2.9041924850422784
H              1.396570535808016              2.2333622482769466              2.2422551002362074
H              2.5307717380372274              4.343433235049252              0.15914348602897457
H              2.2239379024947348              4.000523070212444              0.667251176430195
H              0.7634292860600873              0.8312272913075814              -0.26577469852636476
H              1.3761423392476089              1.0029700197303721              0.14386793687186752
H              -1.174261025096403              -2.0805488827121543              -2.0777492248453653
H              -1.7148627843536997              -2.397938489906494              -1.5881560334929254
H              3.667520520147912              0.9804630159493721              1.4055216356988105
H              4.19321793992942              1.4242886357317992              1.2455591145994849
H              3.9198642220401636              3.7224084863699356              2.615215155016427
H              4.352486672210725              4.099445827564464              3.142994854648973
H              1.3159215600987875              2.0496265531346562              2.722912472220095
H              1.9322524966415258              2.0885912110983074              2.27695674164683
H              2.487335886323231              4.255994513669198              0.5964967361366859
H              1.946550983709653              3.84476012196546              0.3509961117038944
