72

H              2.544054154499561              1.7103079807038475              0.6285056284658258
H              1.9914631679908377              1.2765530632322413              0.7485873501606441
H              0.84190424649153              -1.063173303443242              -2.182545175896937
H              0.46895925341029315              -0.5954499762826356              -1.8417458100511503
H              4.668070923877004              2.446140092805811              0.9100500835855313
H              4.579692785581096              2.1359242006219707              1.6028554485657365
H              3.5935723627036227              4.652282131549267              2.760191578215233
H              4.2564487241289095              4.510515470541731              2.9789707025426186
H              3.369829821274134              1.9395416623000656              3.442686411204156
H              2.8955428459788437              2.1432815261993445              3.9375743022223
H              2.831421898623338              3.7150053494312725              0.41250972791415536
H              2.737159492466796              4.3023901627897              0.02686156331202935
H              2.3182917326677983              1.4165580628030825              1.1991018098258868
H              1.9383893628750906              1.6872101105238304              0.6228471768042485
H              0.9308388239518225              -1.2008993240160548              -1.9402323652262512
H              0.7116355810194941              -0.517942897839404              -1.7503144300657743
H              4.725292112336881              2.6700298273054486              0.9199458897622049
H              4.86912534427777              1.9926363017114925              1.256705680258901
H              3.819891493765378              4.399263653939421              2.9350734375574548
H              4.484873354683209              4.545019612588819              2.9282135789068637
H              3.0294078524712575              1.528941926608494              3.465246691561024
H              2.956028823867075              2.063177462327188              4.155841946945848
H              2.9992328008846085              4.156116813838264              0.852831398742597
H              2.75163315334954              4.051069429847277              0.15003431845492599
H              2.2625127363757134              1.2909591448517632              0.9915022738979214
H              1.6329741079449205              1.6856912165374285              1.0068460299002424
H              0.7975519432123502              -1.146933606633563              -1.5037678222740478
H              0.3459281657408916              -0.5276825575796189              -1.5236363000517361
H              4.612072444341049              2.4466651463934723              0.8496696899254933
H              4.886669105040108              1.8944587639407824              1.1876982490079475
H              3.878141930450529              4.195974272525511              3.2766032129379266
H              4.512417609863371              4.603798044198117              3.021540201023451
H              3.2089829131101757              2.072619030431682              3.550899133638999
H              2.642104202591103              2.262854084530895              4.111156298888744
H              2.8263425320283866              4.186568052662192              0.7495222731286711
H              3.098966333401526              4.050673233528591              0.07393242630645284
H              2.3446795323389553              1.4031261630285086              1.289737799908661
H              1.8795526974156653              1.7027011489055452              0.7364377177331061
H              0.4154213184750375              -1.053024465904937              -1.7254492715486205
H              -0.025552835941846014              -0.6172690146401525              -1.6289954413575736
H              4.462959814534915              2.247082433714782              0.8595790085903025
H              4.863658975046236              2.119522876521376              1.4218954452548025
H              3.9084740650014775              4.427755787103389              2.806783902966088
H              4.283465586800303              4.930053583734637              3.2301588992329533
H              3.1384429831967164              2.4240247316198076              3.50137771993903
H              2.8368146380107366              1.8135260435652683              3.8127482315931993
H              2.6754848064412076              4.110054811407183              0.5067867703953116
H              3.3432136204577274              4.231680673245936              0.20553528530561269
H              2.521809036348007              1.295187242453368              1.1679151390777542
H              1.9293670315989984              1.4842925023427833              0.7074472377952197
H              0.7281593295305052              -0.9076952771390442              -2.040499833692665
H              0.08218116654192058              -0.5652766059926505              -1.5898624039400104
H              4.556372989332149              2.2713366969397204              0.6927509688187399
H              4.890792230041876              1.9022631301817794              1.2950805960606007
H              3.573736048821847              4.627211516895961              2.8475305121493086
H              4.175815935623637              4.90320282092211              3.1003453067583773
H              2.89861721558328              2.357192180830275              3.0542844831913287
H              2.926850131515246              2.1062838603353233              3.835896861063494
H              2.546284555592351              4.098123018715399              0.7110367787715286
H              2.998305818247662              4.15672453369127              0.06883271931229382
H              2.590006555495698              1.9158861640584313              0.9201167854274769
H              1.9004988977638788              1.6849612563747716              0.6699360947467471
H              0.9346840007308453              -1.009022438667893              -2.0490394468098745
H              0.3235907883776564              -0.6722122552409121              -1.6985587216979443
H              4.641125252241143              2.392662610646614              0.789176129303
H              4.997844810644914              1.9136844572262524              1.3174189769820297
H              3.532450445236181              4.691111519351242              2.764876382770764
H              4.272883604501886              4.735097769279734              2.848055977214615
H              2.985359339002595              2.3263147262613835              3.2435396264562772
H              3.0452697859796922              2.2588699149870015              3.9783727876831354
H              2.653565804215309              4.058344035696528              0.8022000756098973
H              2.849548416820698              4.2951228188080846              0.074404991457378
