72

H              1.8790616708141326              1.9641269519721083              0.27539901281897655
H              1.8648879911685763              1.2755440933172784              0.6646271282930739
H              -0.7920769414065169              0.006006800744131229              -2.2029457226444533
H              -0.1487161696063338              0.22765179534071533              -2.510595451083227
H              4.845030776697505              2.0573550542338994              0.5546240571725234
H              4.434725797781977              2.7191488358077347              0.4594490706437881
H              3.8532668003025075              4.354071273411162              2.667723896870911
H              4.021239554415235              4.724159390528038              3.2616735366512515
H              2.877743361570369              1.3737722184115357              2.8771199793619857
H              2.746796771347474              2.0761185157644593              3.0517819419718175
H              2.924037695944099              4.352153349446574              0.129501246881317
H              2.3106245252802893              4.333215840084748              0.5422478861766492
H              1.9258993335731445              1.9213519702136226              0.2716012622951575
H              1.858832588020628              1.4213659652899573              0.8552224879837403
H              -0.7429750253346649              0.10999965513482615              -1.9857599243803157
H              -0.09010652801205761              -0.028558597288744467              -2.35620217798261
H              4.417830992274217              1.9725586315840198              0.662357961426599
H              4.7703566895849505              2.544697099697618              0.3021083853042203
H              4.167797039915167              4.088944968323531              2.8225983365086322
H              4.099787615889282              4.452859282634862              3.5254940023024166
H              2.803059279077472              1.2174436667297361              3.0334592667960174
H              2.8623104548334877              1.9758080483392064              3.2642528058571885
H              2.547686112694284              4.642183990609612              0.1455658788853617
H              2.475865121285861              4.124210435308041              0.6545668830115363
H              1.9483139474886004              1.778775915384313              0.308118073512795
H              1.9114233001030372              1.7061872545313423              1.0981731245494424
H              -0.795337558489226              -0.03370084590924819              -1.6319709821259092
H              -0.15836466429614396              0.09185594387974436              -2.0362117126375625
H              4.518006306517716              1.8028053463941218              0.637887586330168
H              4.574746186568067              2.5560026999799454              0.5195005324476963
H              4.260625318538734              4.121850787789327              2.798598319122987
H              3.9775513585979763              4.294854509125589              3.4364523336070865
H              2.5697231803970553              1.3021668834964157              3.4578265301382856
H              2.856985453367234              1.8936624047600887              3.3934344360275905
H              2.5234341754891108              4.424249942367146              0.12954729142456078
H              2.542537526878773              4.040120060846133              0.7684766872588042
H              1.850746535761014              2.1127971942336714              0.14969045985588716
H              1.525177052656927              1.9023564440648848              0.8200892178370313
H              -1.2736277331032118              -0.07185764840547873              -2.028484196850482
H              -0.4930185519053041              0.07977926642178025              -2.1573158115191666
H              4.843211218036206              1.9601497058129167              0.8449045712551555
H              4.633953725674908              2.3150384397898063              0.2698257262442811
H              3.7013035507226295              4.475880149910289              2.6744216523637685
H              4.072537942258702              4.400336225445688              3.325513177201849
H              2.404986199056123              1.559384099477832              3.2915694946110006
H              3.139497022651134              1.61333664433682              3.6143803967083667
H              2.7857993619798997              4.283918082852729              0.1672496862715396
H              2.2718838871494387              4.450906044603365              0.6285813816125069
H              2.0739471159240592              2.1781372139170823              0.09630228888149701
H              1.5480458042596386              1.6389475120671173              0.36438307029942274
H              -1.023893267518129              -0.17176279236075284              -2.201905623152845
H              -0.48730525857375656              0.2255551850321597              -2.3540136472511732
H              4.186929963698043              2.0065102331430626              1.0166108324544354
H              4.210181600933049              2.4092349011317284              0.3376742317423813
H              3.516363145345226              4.56437107265817              2.6607587912420794
H              3.939998299075645              4.408359609609125              3.3005476693794806
H              2.3790600830921664              1.6509806289197357              3.3763491119884796
H              3.1038804475091397              1.4367016880059227              3.5058825878201145
H              2.6252728804141143              4.4644881653632655              0.050330569052724726
H              2.299962481020025              4.272878841345717              0.6764072285957323
H              2.001661549256945              1.851611707838808              0.2761940620790705
H              1.4629129687309383              1.5008567647539381              0.5596327584166215
H              -0.7520392897325319              -0.09073024970246328              -2.1351260422333387
H              -0.268935924162306              0.16417342782765187              -2.5524958477008046
H              4.577647013366836              1.9975664599970364              1.0788731786522983
H              4.291910798495783              2.6632293203072543              0.698491424580878
H              3.815180542842438              4.69974068032937              2.4477418291889124
H              4.0239439547626334              4.600098277198956              3.177021623211517
H              2.5775960901945165              1.2165652528168027              3.1051975104722582
H              3.071414306697827              1.828798468707552              3.259495256734016
H              2.794722017556373              4.543946176163506              0.17239565244217625
H              2.388259442954425              4.617871232560203              0.8004888232698519
