72

H              2.1471661472154953              1.9096822301172904              0.3687470580002013
H              1.9093579362071134              2.023851017022869              1.0527285667886739
H              0.0920842584272542              -0.29044263063860454              -1.8207809111930926
H              0.14937073234795656              0.26927638617949173              -2.326438235194112
H              5.389043874904978              2.4788460567569537              1.3123981406928835
H              4.734178834857233              2.157047461825579              1.0310081987839632
H              4.079693303259039              4.482007077343142              3.0672057290637857
H              4.054461773392713              3.935615126679192              2.6846369157970225
H              3.422500055319467              1.280530003405272              3.242185566732558
H              3.397386790757927              1.976583090519317              3.1477807784255734
H              3.0241123268392447              4.104914573923703              0.595732574788042
H              2.7217032517067454              4.680312251863077              0.4023280988815416
H              2.1447094368892055              1.706775769256081              0.7249458383647481
H              1.4661677799930861              1.765783128145109              0.7547286798296758
H              0.436615453723248              -0.24590161595409135              -1.7820530804587358
H              0.39527456069264066              0.5406161512115611              -2.1314563774290702
H              5.294442780470945              2.373313144014419              1.4032647737326969
H              4.759183788821767              2.294809127190498              0.7291923334748854
H              4.36166548034737              4.57614974831513              3.003238119753982
H              3.910975058795585              4.047700300984955              2.9052216453659203
H              3.434622641407849              1.164863241990634              3.211747292835899
H              3.4467051193427425              1.8330052222305737              3.2865759376048356
H              3.0000872487144834              4.178137511950848              0.3219314193315874
H              2.914418487609207              4.594386049746278              0.9273723517174398
H              2.1338053139081294              1.6089720489511141              0.801344602827192
H              1.4383716565299693              2.008802574411681              0.9044269399741176
H              0.4076473789246547              -0.44436468138509133              -1.7741440498848167
H              0.46923740795660135              0.3018588108527652              -1.9442120272171703
H              5.494403832117464              2.4134603604354896              1.35699000649739
H              4.934438075391139              2.332871814884226              0.8807917845653764
H              4.352835693880526              4.770166626394746              3.0352414449638334
H              4.0437573830725              4.095659139577291              2.924640097359373
H              3.5153321557722537              1.4570032268331734              3.1701015911491788
H              3.2658963699975834              2.1919873717538185              3.089885174305595
H              3.3105842815415762              4.283533486131092              0.3124706884684614
H              3.0588845752271783              4.759183838289257              0.8091095648156942
H              2.4061432758192174              1.4055492921211257              0.6578212354187997
H              1.6974135300865258              1.678973829018434              0.8822173267848734
H              0.010226220123073103              -0.5750817806698183              -2.1046365691731053
H              0.20139335590880844              0.06530171660855379              -2.1831558067275307
H              5.510341004692758              2.5529124465118267              1.5012987734023073
H              4.925504920514705              2.2657747491157907              1.1178145872399734
H              4.027403240156129              4.860023746917122              2.9439474148596405
H              4.159759781010017              4.18666173609623              3.2130959253336275
H              2.899427024417603              2.003308900697744              2.97225546233494
H              3.541772519778452              2.046565944101942              2.8565819610648537
H              3.4422818960709467              4.183699272065025              0.2863261601206487
H              2.8456635181822874              4.5287792628368              0.48694572879372167
H              2.5505232769881565              1.558639931144169              0.6745250087334363
H              1.88356281984389              1.9018524245214397              0.873469675162412
H              0.12148703953774927              -0.6053497885215879              -1.9365834105462207
H              0.11313884895702735              0.09022420688314474              -2.3111513318469643
H              5.557164660680333              2.5393132940816243              1.2347853802469662
H              5.179394743377751              2.178581057191223              0.647721178735792
H              4.08225690656411              4.734141233755047              3.053011516742998
H              4.293872002121281              4.093152578896734              2.746696058285818
H              3.0165797343014744              1.7050022305154087              3.51512147279366
H              3.2062082191377743              1.9255142654815809              2.792066632024117
H              3.1268052586732056              4.2001552344574264              0.4384221897953743
H              2.654426524621246              4.61797790042169              0.8013796298736526
H              2.3468439787585527              1.5311236576874534              0.7782072059642319
H              1.7480254093420593              1.9280874362531046              0.937075091268473
H              -0.018444755009858024              -0.2679424048635573              -1.6102987812737644
H              0.15805203566978726              0.09793134242767541              -2.277219742422077
H              5.464206738440982              2.112653297154601              1.2478025049934476
H              5.045144298803625              2.432869095708047              0.6699611315776347
H              4.223076921628895              4.460881977333262              3.2174462271497033
H              4.022661050005726              3.999879652543772              2.734913623517726
H              3.3730409518013507              1.5480739468741347              3.3143252892764155
H              3.274272727091504              2.252123082781139              3.0649910770479414
H              2.8315145103094017              4.203599649155292              0.4043563679830754
H              2.5342529164407415              4.791570549023983              0.6873582661721178
