72

H              2.3658404294540296              1.425040501123177              1.0909971369025786
H              1.9724259890678482              1.9311560578284266              0.6624509801293433
H              1.0586160649271563              -1.016090328108332              -1.756926030327141
H              0.48149299608259              -0.7225448894137249              -1.6415421039230969
H              4.850483828278675              2.6397585252670943              0.8363687271288173
H              4.978201918440253              2.014681843505268              1.2708195787294707
H              3.8822382862855997              4.6562230604749475              3.118923468524783
H              4.544030712488331              4.817227676101152              2.9278469456678713
H              3.095700589041075              1.935931395599373              3.35883461478093
H              2.7440520673420536              2.167813193478187              3.901625003985106
H              3.136715723911652              4.077303169547962              0.847674020689428
H              2.8842295716315522              4.185349121598154              0.19627515596106185
H              2.613403908909486              1.426195173024388              0.7720497606465908
H              1.9770773725822433              1.7111511330812976              0.7455275715604948
H              0.7729431515456965              -1.1544058006634599              -1.8735418301689584
H              0.07119359144294331              -0.7143987547343916              -1.833695703823083
H              4.62606238491962              2.5974876023857982              0.9874094348108027
H              4.959312115058312              2.0410854629408672              1.3852636328288874
H              3.6792502626470713              4.580750062875305              3.00406121674762
H              4.397633260248155              4.656433155802206              3.069817818583554
H              3.055669369262546              1.9911235454720815              3.3473921905508113
H              2.844475246547367              2.226666621367823              4.023118340202941
H              2.8679580454019096              3.7606617674100935              0.7158066915072784
H              2.7569151774473863              4.154166619523177              0.07149746452161743
H              2.9001947154472902              1.4245077085881297              1.029537729045602
H              2.1705155946680232              1.5779847851552475              0.7623532948252262
H              0.7690339321960937              -1.0466574190670788              -2.0733600994112398
H              0.28826499301131303              -0.544879369090074              -1.8634654920781015
H              4.560487203322426              2.4971308305859807              0.9191471512735974
H              4.812050820409309              2.1571390443465615              1.4338100066441664
H              3.7744897553659826              4.292283124353739              2.769116678193714
H              4.353080722558121              4.789313256318172              3.0377842360663747
H              2.953529468500982              1.7845142392077338              3.1837344577212123
H              3.070266038968477              2.0193826965991497              3.889141315893511
H              2.5696266184874967              3.8508587749393053              0.7275805498520702
H              2.739305765696096              4.12103932950952              0.07147858578670263
H              2.442882585957091              1.7564009861270842              1.196098893728899
H              1.8293744792173183              1.4576738008569519              0.8370861142040829
H              0.7784981604800311              -0.8661406670873232              -1.7617495313400335
H              0.6638358591572113              -0.1651430862220829              -1.6509119751621095
H              4.722073235220958              2.4295793769723293              1.0216227931499235
H              4.746444298961598              1.7055645470980363              0.8866286321118795
H              3.7702938588085337              4.388206135227032              3.1884923329392807
H              4.408769834115051              4.662684124768815              2.797964923637486
H              3.2928156922207243              1.8245578539790506              3.1259610033263234
H              3.1338139857214906              2.11518655145122              3.772164378138512
H              2.34124514689936              4.017022269338899              0.6851933622682049
H              2.8082160476772033              4.366841597196648              0.21936127762720203
H              2.407855660355154              1.7833056876379278              1.0632650635666925
H              1.6836228261709822              1.8509919052816761              0.7696852154178087
H              0.8163672733421634              -0.9804997793269306              -1.8103572815298248
H              0.5972106254085452              -0.22919810516640463              -1.5686010877265346
H              4.492582748271513              2.2681808229950096              0.8702008421266525
H              4.681393408375899              1.7910967740700259              1.430952619074416
H              3.725951880079113              4.616222952503292              3.091707246685829
H              4.438919919600643              4.624974371328006              3.001284351195834
H              3.6610223151836916              1.8895856067446297              3.491017512417768
H              2.9152462766852185              1.8609109164733968              3.60051185695266
H              2.7516144893473444              4.022624124557051              0.4633891751462399
H              3.0321937527879266              4.486748529418286              -0.04126165663786842
H              2.336313472124115              1.439062808261963              1.068033892933736
H              1.7172261465485321              1.595366534587979              0.6598646312197454
H              0.9622317624670046              -1.0284331667902193              -1.9582045093864422
H              0.5604411201575472              -0.2996591147290294              -1.6939782575818163
H              4.78930208369837              2.431558531898813              1.069401779884343
H              4.725852069455741              1.878975386833817              1.703010432951768
H              3.797500347987773              4.982216346540332              3.034658531077557
H              4.504581530368514              4.649142714075064              3.1157580788406953
H              3.301906868075759              1.6204853703487636              3.2826929884977445
H              2.898319651125047              1.8534597861586846              3.7455071478392763
H              3.1375739859135523              3.8518646833786705              0.4357031005522486
H              2.9445574360515843              4.483928176323598              0.11080227074744234
