72

H              2.227844058310241              1.7090352270482718              0.18909064059425476
H              1.7335340379022277              1.6837059607529001              0.7862399116113692
H              -0.6430831386691519              0.11797513955854082              -1.9252861976756637
H              -0.23187533014271167              0.2390700002293649              -2.5495345859391416
H              4.424320756744896              1.9599758223917298              0.9127637020259785
H              4.333089863672591              2.641390770390801              0.6916365517483667
H              4.132599622611287              4.336785191774234              2.724856611821394
H              3.884940987682981              4.31237336767973              3.441716654974377
H              2.9617790338740675              1.1123727951060074              3.074151424354705
H              2.871219910236946              1.8110736096843725              3.3614699539888884
H              2.6131874372503816              4.471439518447994              -0.04929968854995672
H              2.502993877645164              4.434964180681256              0.6821381853140362
H              1.8020720118004423              2.086546300919078              0.4010136378411513
H              1.9618397946031978              1.6263211309863643              0.9364646261126928
H              -0.4207110583999867              0.09234250055492214              -1.8262204853441208
H              0.07101443010894766              0.42951285293820335              -2.236883230498821
H              4.94800006362906              2.2009547831681804              0.7429607676697108
H              4.410836726777588              2.5315431217821778              0.3151370023718803
H              4.294357022852085              4.572648239900687              2.699143896536921
H              4.0292199068108445              4.149920735882643              3.201955274309491
H              2.958409143097051              1.1142544783878647              3.3378741084644634
H              2.994140185368834              1.829013245126172              3.2827406245733153
H              2.8755904863733366              4.415710211597959              0.021191888985669982
H              2.685003881015361              4.463370654913199              0.7456349678291743
H              2.179385653883648              1.9146254781206824              0.49852356841345036
H              1.4785503449318242              1.7363598248534966              0.7717430700557313
H              -0.7751453512059392              0.04320950437931163              -2.0588884853173015
H              -0.06027747404990652              0.18284588849827801              -2.0208948071841073
H              4.498487186712554              2.0135204497353434              0.7550259394500627
H              4.648442590619073              2.573092408935203              0.31450256660116754
H              3.9441794560675865              4.230068368087191              2.9570007291914977
H              4.039306683028773              4.5174163479698946              3.593410056452952
H              2.748841702476831              1.6291281329549347              3.06618141401933
H              3.350958871546223              2.0348367625571253              3.3751638707029517
H              2.853362164609297              4.565071044335542              -0.0641399412261604
H              2.6336339140906855              4.193314512904075              0.4982168649011407
H              2.244922738809454              1.9782081452037317              0.1875983126133496
H              1.8042111805923366              1.8537680255349331              0.695226500688584
H              -0.7847290932296275              -0.3711568300743127              -2.1264101556341464
H              -0.19594708270718963              -0.009152043620411738              -2.2838762075741803
H              4.556017499597627              2.054468628766416              1.2141599086730104
H              4.623080956017201              2.451062558113596              0.5148420663207527
H              3.8907539444218893              4.4077931094093765              2.795667119746211
H              3.9871729193956202              4.499035611450459              3.51554913974902
H              2.628306168565224              1.3745657297349037              3.375860460424401
H              2.86644456682497              2.0762713192458873              3.2906999279807425
H              2.911899998183352              4.599022834895531              0.09661630369771185
H              2.4637218836743298              4.067320055782253              0.44878925399960445
H              2.0575386737597445              2.042767880751288              0.1422457150431328
H              1.9924588742156406              1.48584318504372              0.6693351356622748
H              -0.8720347501275717              -0.14575365719033537              -1.9779765657458392
H              -0.3199935438538025              0.10222298358095117              -2.4415078436686843
H              4.74393778359978              2.00925289633938              0.9010827921515265
H              4.468309403740491              2.516739934844459              0.4728001437922147
H              3.990770685818419              4.710570739324002              2.6228475338254027
H              4.0280052147211585              4.484327110832917              3.2591547697883483
H              2.4585171447230514              1.581077342295976              3.4174683474329974
H              3.1576633627700073              1.6773058968054837              3.3991726313244413
H              2.7285864874290744              4.514559360288809              0.1993074531473376
H              2.253572724827952              4.296611658283758              0.696894685737132
H              2.0426271546451713              2.1491801045050716              0.07839433460689417
H              1.8380992793204267              1.7378017613863423              0.6999716752928362
H              -0.9758873952073924              -0.05226485433820613              -1.9770869064036063
H              -0.4033561727608985              0.15528882681857878              -2.483066990775011
H              4.6783205658605835              1.9897747768435055              0.6616625995127862
H              4.432019269618151              2.523339016052723              0.283679486288978
H              3.855145731269991              4.645381477216939              2.6517421702859307
H              4.182029804401952              4.40361394824118              3.250887885343505
H              2.5404781189415795              1.454529227767565              3.3693219096796487
H              3.273686846568777              1.58492701488553              3.312631621152389
H              2.6482205045681377              4.592242449645267              0.06707814102579135
H              2.2368845520396237              4.661513971485553              0.6598310960668274
