72

H              2.3641966282898528              1.4159982578068062              0.6775007225638996
H              1.7277551933046507              1.7867530177849291              0.6250594077071763
H              0.7715128158428824              -0.8890187317068988              -2.215703237292452
H              0.7148687322101567              -0.13404607657774223              -2.1430013177335665
H              5.450633984531148              2.6767322587143134              1.4886200360484236
H              5.0700869954246555              2.0767999608669676              1.4384832731353792
H              3.9509538419612933              5.006864385558426              3.0125321475157563
H              4.359496754810034              4.34088799162292              2.7819842122684744
H              3.016493834567343              1.1108835080416344              3.569802169108635
H              3.3957341779194126              1.7148336112300122              3.184876643542355
H              3.2151836733848502              3.9714411435616244              0.7712310707733762
H              2.821445027090668              4.473318797397145              0.2964354028936531
H              2.409008304681985              1.3184817916134304              1.0795040974083538
H              1.6671504132348567              1.5224079182736214              0.8319521290926775
H              0.7274146549012177              -0.6805714084596699              -1.7349159165427197
H              0.6957768149649846              -0.05110510557661552              -2.0401190961019515
H              5.561450043031502              2.6571081202179765              1.426642559621762
H              5.0763852332972              2.1442299540723972              1.136325579294597
H              4.236948328847945              4.633756087106006              3.226919137406635
H              4.502550632141366              4.1969408885116595              2.6182610285159647
H              3.2350242844028503              1.311321222598779              3.635600822829593
H              3.2386692159070094              1.9177833581763444              3.040293911865228
H              3.116224934456447              3.872853021809591              0.5166915432476316
H              2.7683897393262256              4.4622572940964895              0.7437068119790554
H              2.0296693928278544              1.5216773418946417              1.1174393408633634
H              1.8731182949131397              2.116100004862155              0.8548317358564674
H              0.3775673644132672              -0.6954088098339745              -1.4688649998338488
H              0.4540047010530746              -0.11090990224122994              -1.917808686705607
H              5.205352615268421              2.5975674010131717              1.147549741865357
H              5.236610946718061              1.8774902499055206              0.8793233138152404
H              4.003876568136641              4.364912963943982              3.245641743918813
H              4.479372848169132              4.2496902044667              2.723312591636651
H              3.5565619422867476              1.336383886660258              3.527429033704906
H              3.040863162516646              1.8392331091470522              3.3191601031199136
H              3.02885786380291              3.942420085211656              0.6378941907374077
H              2.771574466845651              4.628252005676813              0.5347223147890776
H              2.176692028130092              1.2646004150882713              0.765007297040527
H              1.8540886779542054              1.8355913634963108              1.0184797977972129
H              0.5234377106592291              -0.7752431050607923              -1.6454174598975932
H              0.19915752103246362              -0.0008586299087415203              -1.970678033999249
H              5.077432391388881              2.4584052859872996              1.4236257522674391
H              5.015185388844105              1.6605601239837862              1.385984000844265
H              3.861959838636786              4.645749422307499              3.3386923033558626
H              4.258055680046515              4.271408095736673              2.8625609118959723
H              3.265668288898733              1.1134527979859672              3.3106076316041078
H              3.0867193583268997              1.903911386319878              3.3589145424005493
H              2.9471765886641395              4.12279261582194              0.6568518764212143
H              2.750134355752895              4.547763517234961              0.08455094841668202
H              2.3140588551298142              1.5865587693349246              0.9987829141140971
H              1.6345779456009177              1.7260522393846383              0.8416047747409057
H              0.8061149398890106              -0.5425292469470537              -1.8458201910283576
H              0.3314868699663004              -0.10476915133176794              -1.8587646672687437
H              5.469857621195699              2.4617123054111576              1.1342351750805075
H              5.204303745881018              1.8660712422025958              1.423227447854763
H              3.8693148190011364              4.857792503490569              3.0837671735849224
H              4.404488650838271              4.647783974720514              2.5648468435547334
H              3.4633578536598826              1.4639891696469927              2.972279312808645
H              3.050405193524835              1.7379493344163401              3.452900599190487
H              2.8522031851682366              4.2129717650107334              0.6949210694337415
H              2.9438628144408674              4.8978799174213945              0.4005290505800698
H              2.1830036289981996              1.629621607239374              0.8372545402308844
H              1.5351773594443736              1.551144882467482              0.4812532434159398
H              0.7128300507964047              -0.6539741740014633              -2.077787026595689
H              0.5211497067903447              0.015303456031076433              -1.8749595329132671
H              5.511310163613718              2.4447803961854917              1.223209336300801
H              4.980415294800253              1.9941182235069939              0.9999690711726056
H              3.820820896848479              5.109004697379586              3.103515293500479
H              4.1211382303401844              4.485084233610847              2.7876986603129343
H              3.4880743219162804              1.2923566210763382              3.1062804690664505
H              3.2509021988948676              1.9720028543409973              3.3911474022268595
H              2.92199383940969              4.016230694063414              0.47309491097347084
H              2.8370445724417737              4.784140704763567              0.45001298177229543
