72

H              2.603609100894002              1.5359838775158883              0.5383172608823515
H              1.8928540822523643              1.7465867601164937              0.7097064769102039
H              -0.15925375289743027              -0.4133741361917959              -2.1195184209018567
H              0.1403660780764681              0.10323199459393612              -2.286325488812822
H              4.914307184230243              2.258470013533263              1.4305562659816782
H              4.641576197513183              2.5664692310376434              0.8198275627754041
H              4.2367732495020505              4.5691313168069865              2.963447689504067
H              3.894017848346203              4.237572203413425              3.448597500244319
H              2.925391265549142              1.7516144777313343              3.2772093541546545
H              3.18655647968219              2.247311148471637              2.835803698588013
H              3.2264583045317825              4.476223451740248              0.06189304775765653
H              2.672570477748432              4.292044683292589              0.42176685966274036
H              2.336029872373019              1.8380627809865853              0.44043328899704104
H              2.049069006666879              1.7746306479871647              1.051677190492847
H              -0.2819221018554298              -0.2930720306828599              -1.8116335364284586
H              0.039455640234629726              0.0814741012138913              -2.424298883376798
H              5.4432179609464075              2.2858595823717183              1.117221698510723
H              4.93579824644532              2.4575226431702557              0.49260614209683967
H              4.374071160441567              4.8386476466231425              2.919090393294666
H              4.221461963773394              4.14814462972742              3.034280597676463
H              2.8913715862736593              1.8052951285363137              3.4581369992504984
H              3.2429533840927305              1.8957490870377482              2.8590141945197454
H              3.070193493260354              4.517072806004593              0.20837507513092782
H              2.543302871663541              4.558943501935224              0.7341305537440672
H              2.41896363523451              1.8607912410541207              0.3421836147965924
H              1.9015980848378533              2.0169690605971224              0.9422041247096063
H              -0.5237003890559914              -0.12047242661154306              -1.7313607421890813
H              -0.13169412046883444              0.23757657381196018              -2.32655792351473
H              5.065632192389253              2.0719709745032557              0.8346459306442072
H              4.703725568252545              2.515261602590532              0.3230997118006243
H              4.126142178318437              4.607691979591117              2.9849378098259765
H              4.098212378385013              3.960385140899719              3.305003647638176
H              2.8754514646836373              1.7471449988274899              3.4703370258624715
H              3.554396072073428              1.9294026581503645              3.0570569658907596
H              2.7390088415423346              4.384665477115519              0.0013760358116339671
H              2.4788655339564114              4.523910354283069              0.668612801758709
H              2.3114085655744665              1.8405144427079145              0.40986772564548024
H              1.8266072318430404              2.200079931083809              0.8396170213879316
H              -0.22020910960796702              -0.0862409977351029              -1.7893141379469266
H              -0.05325183282348513              0.26207335873304377              -2.391847352228562
H              4.94412072388123              2.2267991581702553              1.3544004380945762
H              4.525135139661472              2.3647670444647453              0.6843011199589017
H              4.300845836385958              4.538160709029077              3.0589563135113633
H              3.9317706809691217              3.8599713805096765              3.03001840149634
H              3.2892299656122357              1.17821180007919              3.316049047291962
H              3.17802777654353              1.849676182242978              3.4014353700526185
H              2.8748858544224354              4.259024107173548              0.14017216984203903
H              2.5728875825676027              4.765718416108809              0.6361581256095385
H              2.134814744932272              2.0182535321314456              0.4099015198131987
H              1.8264624194619576              1.7200274168448573              1.0481677757416707
H              0.05077716995058011              -0.035122618243458636              -1.7779545451701226
H              0.1770865048104956              0.5881146593616761              -2.1497712422238475
H              5.135658264592194              2.3570660917880333              0.9981206864591019
H              4.3787028118306575              2.4305564806059565              0.6905561839371925
H              4.3036664561648115              4.633348211168087              3.022471849892462
H              3.9918733883385693              4.000896450239106              2.9118119277694374
H              3.282231473513418              1.3420137529711935              3.2874670654827276
H              3.3545537576837146              2.0485288728928985              3.2007365072427736
H              2.9836719353740944              4.290837380258292              0.08589503943270814
H              2.8310152058622475              4.512166054731635              0.8153998047773824
H              2.2489886296457113              2.0089232233477587              0.5686583613257641
H              1.5128592348565248              1.956242923155209              0.7443315777266482
H              -0.2551390316103829              -0.24161318277066765              -2.044197422116717
H              0.2459196509762088              0.38462218858173064              -2.1287795081895227
H              5.114934046744371              2.4061812867109733              1.1388829238562992
H              4.754703129207001              2.410626860223098              0.4881329524227342
H              4.166629341680959              4.726053645346797              2.8425763193527964
H              4.033309613629033              4.170678559724341              3.3507917375850518
H              3.2610713380643253              1.521225564073328              3.132069270619975
H              3.4518620065734296              2.2601067156841004              3.0821485861026705
H              3.1737356353659094              4.446368374236431              0.051562148196243926
H              2.8447841648368586              4.576280070394357              0.6821635043234001
