72

H              1.279072733395417              0.8654625175790108              -0.21824313528499453
H              0.6742088379268693              1.2130464881704              0.09652032329997365
H              -1.0160668441639567              -2.3039757021250082              -1.9277041514147855
H              -1.41331046369237              -2.6836760486760887              -2.333102909229458
H              3.954859080299868              1.49629651585961              1.5449309178869182
H              4.300783673056084              1.6103533408134136              0.8771869739678766
H              4.254650526929666              3.5863511236655423              3.464321028559842
H              4.317341745538078              3.8430737437713405              2.759565224830058
H              1.644293607538661              2.4047221092235147              2.669949532225147
H              0.9631475006324628              2.3896309048730653              2.3968942547147645
H              3.0756676615961447              3.6825055523701207              0.31812968534400415
H              2.3620462154551034              3.5701013870499754              0.11481637759353824
H              1.1422802696401861              0.6706811185324754              0.04007229010669732
H              0.7376823066228259              1.2012941955394978              -0.3088420786845866
H              -0.7883520801977797              -2.6600494052633175              -1.9414837789837442
H              -1.4904167605209242              -2.6492295095252185              -2.3408566881627833
H              4.195350735368737              1.5094978022475694              1.693520089341959
H              4.5999323124655              1.760501768344631              1.153594165940082
H              4.085808194449528              3.5105766922953725              3.4656503613917886
H              4.251284752585427              3.725040974783634              2.7402254540268403
H              1.6278351621248954              2.151729007271457              2.3109809622156283
H              0.8585581545873098              2.3534910129084325              2.206112342432807
H              3.1697104945169334              3.6946743103958766              0.015225013081518718
H              2.741183466707484              3.5555833621057182              0.5558598455800036
H              0.7512612261196661              0.9573224593478913              -0.5377013032001083
H              1.1025236081802372              1.049306248823484              0.06038047678796294
H              -0.7424948967734429              -2.5735002937844658              -2.064686171905842
H              -1.3733325266652077              -2.8897195868944543              -2.3805257668721116
H              3.7657613399344925              1.4646102085950161              1.6144669902721087
H              4.394690528241712              1.3381685323498356              1.1989681503897958
H              3.9825848635068826              3.3243173736707243              3.383353583536206
H              3.9997610491582263              3.79709381894354              2.8690695717886423
H              1.4851654543792001              2.1072800795921776              2.4656543766029717
H              0.9727165979403739              2.3735160154530917              2.0510713629306276
H              2.9389162628527035              3.341997812163887              -0.03017356857053067
H              2.554936017703159              3.5035862779126323              0.5909133522367088
H              0.7303209605525096              0.5880477041571835              -0.1595195682283491
H              1.3867951438138089              0.9369390357336739              -0.06022894518828624
H              -0.9858989085084436              -2.718773090903822              -2.010655290065252
H              -1.5053290412432692              -2.9943433665455337              -2.332581391614758
H              3.669411119881203              1.471084977214355              1.5688613971750858
H              4.290030329405831              1.284840408167248              1.3312890300629583
H              3.9169879290734313              3.8977596294471324              3.2607683112639
H              4.3768452284025745              3.6435654059971867              2.765528559857521
H              1.3614530527225954              2.098883762509227              1.9840131752696246
H              1.2319472010546308              2.2193216666474624              2.6706091279800517
H              2.9564087072810397              3.4460090773250376              0.2240890794259795
H              2.2716884102695984              3.7363024340632434              0.4981607748083756
H              0.8785039085367193              0.5679561210231909              -0.448853381363959
H              0.89878669029008              1.0515030208343943              0.16904382086961944
H              -1.326186576014977              -2.678247557528695              -2.169774531615251
H              -1.7837826858723005              -3.1940165539867196              -2.510061046176853
H              3.9358702223506876              1.2112225786349269              1.5284093615508707
H              4.634218971669846              1.4110073773738752              1.4082583614311421
H              3.728815345937499              3.717566819903317              3.4994929772506587
H              4.154033831710809              3.9943864408862417              2.8737373982742342
H              1.3063500719574819              1.8874946296379587              2.3069492899805817
H              0.9137535044530524              2.5309025594904404              2.6331636487954144
H              2.729305326577295              3.807792683219203              -0.04608591495944426
H              2.1891186817994206              3.517711540115368              0.3751051715048133
H              1.328246945139142              0.6324496427541643              -0.4065435082536646
H              0.9321142564137597              0.9070382107773047              0.12974774682883072
H              -1.0690631628288187              -2.515691405448147              -2.328119163322951
H              -1.5876703476498206              -3.0263655931306195              -2.3435878359065265
H              4.144097396495606              1.3645389389649631              1.5427844654147
H              4.619802834973495              1.4039119776540017              1.037448902125908
H              3.9119118360694856              3.6442091905761957              3.377491981072703
H              4.084057612809653              4.0443369564903495              2.7867009352240086
H              1.72043940305593              2.32882430292417              2.2676608267649003
H              1.1285983886975195              2.618493820911613              2.346865978291951
H              2.659429171691316              4.222944378846759              0.21156059412806394
H              2.256025354647308              3.55471608448986              0.3087534460071443
