72

H              2.1888433016632822              1.3784588725950135              0.9748503873809435
H              1.6429846909312007              1.9440912475531453              0.8815357200187155
H              0.6823537558530784              -1.1434485756503396              -1.9562148846298777
H              -0.13997206162090783              -1.2028872474307213              -1.8612188575630135
H              4.984266017965401              2.2222956668802825              0.7580503085832289
H              5.230868927332404              2.480585309204062              1.4116516145528935
H              3.613659385488627              4.669932091819477              2.6956655527507176
H              4.360334419921044              4.6977979384121875              2.834164247128529
H              2.6085896547239664              2.498154582612302              3.3922760154188727
H              3.040705739291375              2.0213948187549438              3.8723758219851456
H              2.800885270118062              4.584569076993551              0.5620492284221137
H              2.7417220421920523              3.9173068542264127              0.2312623182584484
H              2.2664803415816084              1.394707204795329              1.005038103412144
H              1.5872016208209823              1.6677855618157906              0.863659811509142
H              0.36838443796949766              -1.2556866538330391              -1.7868854182977614
H              -0.3361081057882023              -1.363899403737473              -1.8890486656187033
H              4.944508048532753              2.1310944828135896              0.7943673809602719
H              5.016681472835693              2.6658326954895473              1.3264012352155445
H              3.974666010074987              4.411025992550595              2.5446798691942556
H              4.196843393826655              4.6655293922427745              3.2359856735306813
H              2.554594470529706              2.5381762773696854              3.6565752448884266
H              2.8563098069149353              1.926180402179498              4.150965203086845
H              2.729189327675166              4.5022570772379815              0.22011608447995248
H              2.9996105991444173              3.8159691463061187              0.221423701132279
H              2.214784437529686              1.4086237323442656              1.2831937328773875
H              1.505312104877789              1.442198779977342              0.9385354309191307
H              0.16427945748761896              -1.3289310698841121              -1.962829298838892
H              -0.48333413733588687              -0.9148851850527399              -1.7576156928220619
H              4.887679113311961              2.2610790218285386              0.7288805238508653
H              5.232534114157911              2.3763338310105757              1.4826520751227865
H              4.150159154892977              4.6390573802990644              2.520063977694038
H              4.158808563700807              4.782441291198104              3.215741870095048
H              2.267362005680038              2.0316113306284556              3.6947842092337266
H              2.9669913764144833              1.9582629367619808              4.036833163831678
H              2.735340450324826              4.477700595827206              0.4208044392488857
H              3.056491710231233              3.8130061390691745              0.4846427770942149
H              2.188922712467233              1.3900412344201052              1.2336764828921831
H              1.4857055180319034              1.5954427822084651              1.1614268446350133
H              0.22462869396859733              -1.140996650779748              -1.8172714376661994
H              -0.42310610082113875              -0.8089146081858829              -1.3755669226546363
H              4.698720318826351              2.07195883014998              0.5392914581792753
H              5.069049282829362              2.439133025495509              1.0162851954183152
H              3.9318013089333608              4.513946723326097              2.6875414632357377
H              4.214323397001529              4.875736172046189              3.2054328410994475
H              2.328266010454058              2.425454321574292              3.685159839679664
H              3.0209132688824107              2.3603672394029265              3.6812671613101764
H              2.944287935111724              4.524183227997627              0.2971822860616522
H              2.8780040502485043              3.855719308950856              0.7629653886351175
H              2.158826685438061              1.9325130612858055              1.0330412046605923
H              1.5322708100328737              1.5354402144894976              0.9905329143288246
H              0.044790895557218484              -1.0394683808456084              -1.912725269560445
H              -0.504573668941304              -0.8453888304416887              -1.603534094145969
H              4.585112044569909              2.000059832395192              0.8056777873150435
H              4.997525080084158              2.366219333350323              1.296774121364979
H              3.6971127498351657              4.897192771608801              2.430152515182073
H              4.05276363371035              4.872735984223052              3.092162026889517
H              2.574750455397461              2.6009897713086993              3.8368255219120013
H              3.0336645373126663              2.080800589193874              3.5977093893610577
H              2.6924767233508895              4.2398207194923065              0.29608087919495335
H              3.2723463265223205              3.992280660395287              0.6712624085589866
H              2.2976267736493923              1.4569088805570056              1.2407292801498546
H              1.9208070336639727              1.5079249020504168              0.5674865169454762
H              0.36071122679251416              -0.9600175503667907              -2.201064709586749
H              -0.19367804467209096              -1.1373901902922543              -1.7744727860051615
H              4.866673452179126              1.9388331794681146              0.9837198510869511
H              4.8226206118450605              2.5641599747399715              1.3935380925254273
H              3.656907594818414              4.849479545799908              2.3838755873001833
H              4.0114117945112895              4.773770077562353              3.011525302385034
H              2.9150150375094643              2.6287740376771183              3.6114094007047495
H              2.740348718723102              1.9244287910411608              3.5601010900628913
H              2.6997811044058277              4.463371798179478              0.329315968306592
H              3.0368249836610235              3.8659500850722868              0.2488054431645784
