72

H              2.2429786349117444              1.2503215381436346              1.0266837240562037
H              1.5751844905876844              1.4915180300820021              0.7696664440402574
H              0.3088697288493807              -1.1701449001729958              -1.8844198300822994
H              -0.4330550406444928              -1.1166521620877152              -1.6022074633248071
H              4.905677363817885              2.00084464814571              0.8993596951630322
H              4.79081763714226              2.5597599252564733              1.3773842477646023
H              3.9524060880840572              4.66800305220631              2.5163708585316944
H              3.984955832661712              4.810520464644781              3.2421902338113053
H              2.6966498458658266              2.613196709615849              3.8975493634549188
H              2.4521196068296915              2.000551924399864              4.014564757822378
H              2.8753071266729164              4.287150314063453              0.32837314839102333
H              3.419917487434231              3.8339720401571915              0.3740112513700987
H              2.2427313389318906              1.29332648237426              1.2840667293329426
H              1.8024749872606955              1.4542942979456315              0.655224084038302
H              0.3521143627475756              -1.1600624682991938              -2.044073381905905
H              -0.284515593313779              -1.0149697296867626              -1.7018985863651737
H              4.8555993933068455              2.353699884846685              0.6723065527957305
H              5.2272845078869725              2.4844189440451894              1.3300516114985037
H              3.825061630652445              4.666031840034537              2.3448293488952765
H              4.0548566789898794              4.929322108648643              3.0493659279054435
H              2.243847743692555              2.413429868088796              3.63487422557777
H              2.917858526910825              2.4869260529904196              3.9853662341192178
H              2.6777492328373422              4.378928528713728              0.706682883778431
H              3.056911156021146              3.779803955197436              0.5441364730996051
H              2.3586880669571975              1.4300772285416097              0.7149214584046432
H              1.7355974446202207              1.2889233492055951              1.1044482382758072
H              0.39948397926182794              -1.025381115696644              -2.005515317011643
H              -0.23400733900396975              -1.0314742825682384              -1.7173503105074437
H              4.604538829210579              2.2695282539111257              0.49382420744330346
H              5.060619711210898              2.394924055483499              1.0870633245959644
H              3.4786783475277643              4.457004130997714              2.555838915387962
H              4.00928202878106              4.693789029874239              2.94914922327494
H              2.520368195534865              2.7406354592152553              3.5628469235706914
H              3.0877676498368714              2.427254259438594              3.9941275194008212
H              2.4439132088578557              4.368778397411134              0.4582065054088326
H              2.897464004507616              3.7903408335334188              0.35727812215077787
H              2.20334433378943              1.764663469198369              0.9852072992392168
H              1.7772464327410786              1.199377263131364              0.8946816535244939
H              0.44493001131993726              -1.1358125914085972              -2.2005398806718723
H              -0.03169237814411247              -0.7907023121556627              -1.8819322032049577
H              4.7122202462254466              2.156863677222891              0.8135618754791714
H              5.031844548516071              2.2031317761580973              1.4583363909136944
H              3.55384541148756              4.577673903164779              2.4214411441687655
H              4.0403739091568935              4.593137957316871              2.9900830180512767
H              2.773814105499921              2.291690501910633              3.584476212630073
H              3.174055826707753              1.8574660021475398              3.99061375481795
H              2.4540299298351527              4.399234942311213              0.4491348128430276
H              3.0586903568684227              4.034085097783274              0.15323432389886205
H              2.1780411241765076              1.2331729402009408              1.2668921602440102
H              1.5058345712067527              1.4946828596425554              0.9245298207248702
H              0.730958656645638              -1.1017901305869895              -1.9826503830417754
H              0.2480350354643092              -0.6490838275301478              -1.554002280885366
H              4.8988266041637125              2.0899863035963384              0.6575195709005335
H              4.928827494204195              2.13591655722812              1.3896141836228588
H              3.674509199935256              4.3884824787621035              2.8210528408189655
H              4.371437641672139              4.646658220313336              3.041694902519958
H              3.0401585330846292              2.2905769086051917              3.2692224726537287
H              2.9688118978185347              1.9457339227233874              3.93250588164816
H              2.845053820942072              4.724220355790037              0.4435900877843012
H              2.8732801787115982              4.04252285917639              0.1141828806605251
H              1.91223193032204              1.5720095859209442              1.2004616950449774
H              1.411424487973382              1.981344702813577              0.9198842516195832
H              0.5141042419131789              -1.2581023787569645              -1.6136942589614187
H              -0.08912204545890236              -0.7844780847962002              -1.5071977854269993
H              4.7637228587990235              2.2490353191713535              0.6441464754767867
H              5.095062312843819              2.1162027775081222              1.287853297874227
H              3.8016279064682834              4.533240304766133              2.8511744685226756
H              4.412816930840302              4.753041229953363              3.0586591419513627
H              2.8016370836553617              2.5243067936411423              3.6599951156416775
H              2.9457333871436635              1.8466856466816557              3.975999571011986
H              2.9709765947294744              4.712538540196972              0.5107772798022711
H              3.2531876732102463              3.9984213903900763              0.4194750250130741
