72

H              0.8363689131293285              0.8308887796377065              -0.3081802194565508
H              0.8649299699895284              1.4857866032426303              0.08917129382801114
H              -1.494645314395028              -2.14229416253854              -2.1216825802216297
H              -2.1090736982334435              -2.1578861958270052              -1.7180675375700927
H              3.5577874656292834              0.9731097447587433              1.1087473955182334
H              4.090963826223067              1.4752978819201779              1.0760747830796278
H              3.556274984757837              4.043800925729212              2.637787051824639
H              4.254344137408911              4.081110624440092              3.0447684875714964
H              1.6176556552459824              1.9017539967646517              2.7862256924452
H              1.781816000134547              2.21170763166728              2.215328939418435
H              2.549322248620173              4.054888249387049              0.35233359134712067
H              1.8678227054464753              3.9481931289682293              0.0472747445648885
H              0.6520718930349495              1.0702365863057681              -0.343827023891228
H              1.3552306930730667              0.8517860383189486              -0.22269432091446534
H              -1.4997965916113192              -2.2170365071819638              -2.428406570553095
H              -2.0648384911371696              -2.2743615492593414              -2.020606080144686
H              3.7576387860918885              0.9898215809460357              1.1987602733629812
H              4.356472749713773              1.2005187075381385              1.1079481072091721
H              3.6687370442174827              4.251942269128836              2.572673536265417
H              3.782744897171875              3.996988964061413              3.2774467288442715
H              1.4158434972321157              1.8696496872421782              2.4774806972891823
H              1.868296419252292              2.4798608462510865              2.4274794259773262
H              2.4264357098449763              3.989209311212877              -0.12938041310256812
H              1.9074256708934811              4.09851756531872              0.31572385325222085
H              0.450545893542619              0.9965368200741924              -0.38763908182998785
H              1.1529872439964077              0.7616525565869826              -0.24828799359415926
H              -1.1723842461763718              -2.0362959136068888              -2.442491550894618
H              -1.6764494602904643              -2.3384802993862404              -2.0552888643187486
H              4.085954330488122              0.7383201930028012              1.1355190189947377
H              4.24396335172434              1.4960986272915              1.1407115715019818
H              3.6704643426140375              3.976831633728752              2.5718897960253235
H              3.8083690617929133              4.483020212486317              3.1734907001251402
H              1.6125919149853132              2.1244862783672978              3.0966146024697085
H              1.4042363658371062              2.1896075541891658              2.38739541002062
H              2.47683083854912              3.9342549847138835              -0.19808673175601318
H              1.8392630407669492              3.911459044042932              0.20329201859466067
H              0.7097112631861269              0.8413453453194113              -0.2577963066176321
H              1.2969603071253097              0.5891209413843042              -0.62659939761449
H              -1.1580109327784724              -2.055617551929415              -2.5062034989059483
H              -1.698626700638159              -2.2904649689370715              -2.011400028269894
H              3.8058090928242705              1.1564443094543015              1.20625443800674
H              4.220108969103557              1.516310425325099              0.7200410797351808
H              3.6675710687833107              4.085462367687367              2.5804467662303847
H              4.230174591879007              4.352420224291419              3.0149971024765034
H              2.067665902032872              2.2555386557208186              2.874345230625031
H              1.677396925283178              2.1274332119405552              2.3599329662940423
H              2.7606311922042566              3.9750292581089077              0.08084012069171997
H              2.088183235812653              4.202870548836872              0.383936022626541
H              0.8750592565716505              0.8359064785936967              -0.09333443677177526
H              1.1107743666945575              0.8384135246885449              -0.7278451261890745
H              -1.0785129894269219              -2.14759576855473              -2.2475655366860687
H              -1.6354431504400753              -2.216783486721384              -1.739412710962312
H              3.7068859280322273              0.9733436136279185              1.0277613981170506
H              4.079086742796344              1.643707782314956              1.0890858683526252
H              3.763999584029075              3.640822996139186              2.700456743380852
H              4.190417882623769              4.024984083274322              3.1824466671130986
H              1.6142506941040557              2.0331935363863645              2.9134286037946726
H              1.4205140752012726              2.2199449914189477              2.2465598601004233
H              2.519469759539244              4.32275271393339              0.1312867615423803
H              2.233992271543386              3.991058643656375              0.6811083271590646
H              0.7690421115353702              0.8215774436946409              -0.23613751054541485
H              1.3712054309781643              1.0138831725232322              0.1392852313191369
H              -1.1495992736723004              -2.0855626940198584              -2.0496063955984685
H              -1.7090121616566416              -2.377419821292978              -1.5715300277651707
H              3.6488427748063543              1.0080789551571747              1.4039132168548247
H              4.194343665914487              1.4634806064395178              1.2702289287321982
H              3.9247671917013722              3.7202607414299127              2.5994658082381776
H              4.363040807440139              4.083926004062405              3.124394827506185
H              1.2990130039360877              2.053559007519532              2.741924124960828
H              1.971012955217365              2.0627885978227885              2.2620340482825894
H              2.521023507864528              4.245005727059127              0.6210458102830843
H              1.9632771801799516              3.8414554806006573              0.34227156704893186
