72

H              2.0639862504685573              1.833745158336893              0.20629086952238782
H              1.8179200827011983              1.3865253810846718              0.7293941281542754
H              -0.80186375908367              0.05071141355327648              -2.0884936832920995
H              -0.14254981609030748              0.24980414868771048              -2.6362217452098826
H              4.676236117229509              2.0329617326049445              0.7003437546229876
H              4.4061407793526              2.7075057557511673              0.6195303463230667
H              3.941972822939185              4.27342312016509              2.6670103313655678
H              3.924424903039466              4.63646377295619              3.3965484590052952
H              2.963542699029832              1.3133148261914527              2.869801809519595
H              2.71724544473848              1.973911429849721              3.1144368781401233
H              2.862549320331834              4.344858920506447              -0.012860476860815004
H              2.3569521762249828              4.368471007136824              0.6005901143654613
H              1.8062953409064793              2.024092712561143              0.3628055693151442
H              1.987411570136824              1.4766611843860225              0.8672107839096678
H              -0.5345965492328878              0.13225728836059863              -1.9063569303870767
H              0.02777666084053422              0.18558247949996545              -2.3094544038587896
H              4.66483077899515              2.063207120939251              0.7177170279538415
H              4.631276692575625              2.564413948592742              0.18309785411809681
H              4.311778049143181              4.335524327286789              2.7195320310828044
H              4.068025345463432              4.236301583321141              3.42166946594329
H              2.8906854581747514              1.1430617002650094              3.2103132671536687
H              2.9058483900194614              1.8377726511935286              3.273077446318709
H              2.651309433574396              4.588036505366554              0.08879754470286357
H              2.599683780030114              4.2400648741331315              0.7352857589077755
H              2.0754974132040385              1.7794286313904717              0.4331928894080566
H              1.6903061759192162              1.7427809172623092              1.0473674616278044
H              -0.7752955658993473              0.03008282883337494              -1.7309435350835196
H              -0.09137110676286214              0.11754894345081536              -1.9422473314610456
H              4.447917540643462              1.8858562109313775              0.6302855894285945
H              4.609374171712733              2.550716914754802              0.4506951543829232
H              4.165923161696102              4.094061070921702              2.903771557508442
H              4.01977961904012              4.4042280304557515              3.5498322644991425
H              2.6117823040956023              1.430578500199895              3.3205662499242967
H              3.1421582665565433              2.042432928486343              3.3762274802167895
H              2.632483957296349              4.494895210309084              0.056655218258659504
H              2.6277885136428107              4.0869806357999625              0.6341254337361053
H              1.992462853168169              2.083205946926938              0.16081545530340677
H              1.6341073526602614              1.9782359905952422              0.7325251557560334
H              -1.138761528637423              -0.24581844690050902              -2.124812718228806
H              -0.42122068489918313              0.006851556582780865              -2.2118460195825547
H              4.813963169634456              2.0026188121198856              1.068912763209129
H              4.6847457332887625              2.334013002280194              0.36743774923588646
H              3.727071905856814              4.4337342764813625              2.759170849235657
H              4.023629858484344              4.476118884077426              3.4013279452083673
H              2.453599481661758              1.4141568496920685              3.297308284613119
H              3.0134196419885724              1.9057669130635393              3.5084864757328273
H              2.937407611181916              4.36169090822437              0.12654582590771868
H              2.279985753849972              4.284501534573594              0.5160226539130722
H              2.0556384106095824              2.156001008158777              0.09999405808357392
H              1.8054856897034757              1.5608261784493178              0.37756086067194483
H              -0.9860264386908385              -0.2048466630599195              -2.123007460106402
H              -0.4013333795945334              0.24274268950968705              -2.407663774953677
H              4.361763609531772              2.0279549929256566              0.9376245512993322
H              4.230313846126231              2.4255570171508847              0.3869648162477284
H              3.7099805222619424              4.694882590867996              2.639408666883394
H              3.9394048317281154              4.389301144298456              3.2461050872899113
H              2.396376455491007              1.6596950493063567              3.4692522003521122
H              3.1243358407532513              1.4207820188783244              3.5326920087447315
H              2.6085025012101792              4.4988753360709435              0.12466191126955614
H              2.2654361183069502              4.21881417843825              0.6975141597651526
H              2.0416116614511326              1.9658844446880221              0.18182894858073728
H              1.5298104388107494              1.6100618194482372              0.6497152993822639
H              -0.8673012278740483              -0.07520126105471342              -2.027542654631793
H              -0.31849416337159264              0.15376585440596766              -2.547401963852999
H              4.589722495562622              2.017488987991855              0.8807176368207579
H              4.345771845052348              2.5889327190970537              0.5804647208375882
H              3.8191911693014093              4.718978774449745              2.519481925430034
H              4.1385564379898305              4.549884931489848              3.151887415364951
H              2.5971585443881002              1.334428948435178              3.2308253213690787
H              3.172633211325286              1.6788083518741863              3.264314704169805
H              2.714023283522091              4.633629983897689              0.1469443587288648
H              2.3383993112107455              4.751419004885534              0.7610723115003261
