72

H              2.2378138995432377              1.321659699223473              1.0042889544780889
H              2.0612306881640374              1.986968269301114              0.8901719449045639
H              0.9010843763335815              -1.056915177116211              -1.7263750625419039
H              0.36400745215992003              -0.6499770291690105              -1.699539085947151
H              4.721643491657654              2.4525226109819354              1.0453149303807123
H              5.133203647236008              1.890705808500225              1.3975198351248705
H              3.8318267734177267              4.7134563712372834              3.174741250238904
H              4.52093415090015              4.758341228551324              3.02203486052205
H              2.9256840418317056              1.692097338775872              3.319946989091206
H              2.8027393298395116              1.9692286069148177              3.9070153848930067
H              3.1040196825948563              4.1772169665857986              0.8334672295714263
H              2.972742617740308              4.180838608724057              0.15285726553150805
H              2.706728808659963              1.493610918619231              0.8721631193575374
H              1.9985968234421962              1.4953928756438748              0.8869244606782318
H              0.8476130971424716              -0.8653233261927518              -1.8241183425445782
H              0.08504622119996201              -0.7029082693088676              -1.7439617433098347
H              4.84396212557972              2.443543264831989              0.9508526838863208
H              4.937000264120755              2.036224368863991              1.5106185677515633
H              3.792478616187844              4.596089354775396              3.029925158390691
H              4.44740960532596              4.8970498124487785              3.0136555733102
H              3.1549131796739345              2.1941910034364893              3.0417138098748957
H              2.8461345672261062              2.2921191038375235              3.7403810274289384
H              2.6747623452599294              3.8680967334935485              0.5949242044585695
H              2.8420213109778576              4.348099486623974              0.10106478390743878
H              2.6608569744237265              1.7012012302839403              1.1005138685444626
H              2.2011448678112298              1.692574976383364              0.5352092120723668
H              0.682344423007943              -0.9788451012524911              -2.160510985653667
H              0.3049402137541345              -0.41458320332312015              -1.883041139073261
H              4.6560373568003826              2.595182817117287              0.8657686010077702
H              4.888493920151316              2.0013455775639013              1.202087572859311
H              3.593087132778468              4.585735291340668              2.7583293157172473
H              4.333592448891686              4.85199954695287              2.9656165949934192
H              3.1626339599977378              1.791244803531276              3.0420601654174217
H              3.1988388922490265              1.9178898173620762              3.769413608301289
H              2.525640681562055              3.841339896398863              0.6774706057002146
H              2.6469468201797417              4.331196588879514              0.1583950341711136
H              2.6222763814749968              1.6096129113128106              0.8035555838399164
H              1.8888934116656046              1.617341696585528              0.7690208628674454
H              0.9903503601267418              -0.8792515791188774              -2.021424467175053
H              0.8626271329399767              -0.29397399778671596              -1.7985313838520318
H              4.7283356377552535              2.452658741987994              1.0835252744604378
H              4.6559854025485              1.784287867801199              1.24314003907868
H              3.657733532197395              4.650564510809744              3.096563478867354
H              4.367996477376733              4.377621964404975              2.8576716290180095
H              3.1717995150806866              1.3835395903752776              3.437894309203797
H              3.124482243433678              2.0883887602708797              3.6676846240666143
H              2.619428256279847              3.88652882335235              0.6667230160005707
H              2.599096182163169              4.254968064601067              0.024572231779761377
H              2.3050136501618423              1.8977978016786              1.1333293546862568
H              1.6857602866093802              1.6952057038063053              0.8023900884700527
H              0.9919014102195672              -0.9682521950317043              -1.6778318128409333
H              0.8453905255022527              -0.17235109936754595              -1.6993568408374997
H              4.850736242624926              2.5485833024510245              1.094015612805685
H              4.733723133424748              1.8660370542883742              1.4759222532931342
H              4.016736541861336              4.586248815161509              3.139954515523235
H              4.670701648124882              4.572216186510442              2.8444940896019766
H              3.6323704739499703              1.5440488546777154              3.4914407150274758
H              2.9902247032594067              1.989215723548803              3.6668306077014092
H              2.8604513133964575              3.891558766850745              0.5480903680585344
H              2.944620115482738              4.548339080769873              0.1924880765441239
H              2.2221336041305237              1.3384786606560248              1.1617124450147835
H              1.735952796382359              1.698068622633002              0.7532384354519088
H              0.7615918490925133              -1.0043226825161142              -1.7031028233464893
H              0.5476714609393095              -0.2238470887195153              -1.6164259448360898
H              4.66149213437782              2.540055649554576              0.9606167092590551
H              4.65989927736141              1.867138870404882              1.2892491661302292
H              3.820160974940468              4.658780813471526              3.2955148572376776
H              4.583244597955253              4.640592304990544              3.103658383843541
H              3.5517685479350027              1.6829099513319095              3.4578479246157094
H              2.817122692398038              1.7574028956851064              3.625626494559824
H              3.1163821850270566              3.815100156785985              0.48735557296196663
H              2.9640002672038563              4.421289255133222              0.12286165305986813
