72

H              1.407390166809321              0.7055525075900788              -0.5998630044625948
H              1.2523071556472718              0.8719161922883114              0.14464764161155205
H              -1.267305706332027              -2.5820460117338415              -2.0670934515577564
H              -1.9061967005062208              -2.8818875961511132              -2.18280037831936
H              4.023126346966933              1.297325518687288              1.5433476851600139
H              4.7129526771907635              1.3264275641543963              1.24786071369178
H              3.842647158935829              3.6085926192125277              3.3343804338947627
H              4.272291581929957              4.085835290081545              2.963781122760427
H              1.366395193068045              1.8879720869653454              2.4257907247109594
H              1.1258426733126048              2.5210887666960966              2.1034814318234614
H              2.7768990423771363              4.012595669074861              -0.00040733647411541203
H              2.2375319291976847              3.5676937408634393              0.23791379383160927
H              1.2459081219444577              0.49707025010402434              -0.5759833348370874
H              1.1997182158006365              1.0010309695812258              0.12632905863697377
H              -1.1095447748679945              -2.2554812885730655              -2.1697426444525805
H              -1.7006608615235108              -2.9094193431157223              -2.3023111657218416
H              3.7880650829082003              1.3283533601385733              1.447961515662736
H              4.530385538031376              1.3653818587637208              1.074319722409433
H              3.775067604009966              3.4786057896485647              3.2292526239156056
H              3.9931583972629725              4.128727493099271              2.9923765967373908
H              1.6573200517685522              2.1765382067973924              2.432759369149142
H              0.8141741571999038              2.4523020183602964              2.4394914472582894
H              2.795169818711204              3.5734375566841456              -0.13879230388329183
H              2.1657427668800207              3.6043681578629734              0.15361955773667757
H              0.7709292057445585              0.5362972862177333              -0.38147857297983734
H              1.263840739014239              0.851530985717189              0.044588255615229874
H              -1.0103044170947344              -2.4894897136371372              -2.1748691291538282
H              -1.6059289066623612              -2.9000753244978283              -2.5207979111046925
H              4.019475922899268              1.3887948481481085              1.73316962129148
H              4.51613896036736              1.522592032680738              1.1940340600738701
H              3.726440534045657              3.7677120372854733              3.212210209256209
H              4.217886990861538              4.088644738373037              2.811842983170192
H              1.7723649959424363              2.232394927463745              2.3174469330885743
H              1.1018667474144426              2.38489217601813              2.534000391528197
H              2.9522183970625964              3.322727030182746              -0.010764792086919224
H              2.363361753244722              3.664987070547846              0.2019109331268344
H              0.5076874365523558              0.5612618020497225              -0.516815752663398
H              0.9324368041818932              1.120263330114849              -0.18609685496597203
H              -0.8820352601084984              -2.6450963915931984              -2.396826609098007
H              -1.5591096416553039              -2.8008850076143963              -2.443659192670905
H              4.066198137957757              1.2319729496977114              1.5980153755258997
H              4.404083350104393              1.606327966999446              1.0020697858285887
H              3.7132850276440674              3.6832041644482625              3.3952435313094793
H              3.984988280540595              3.9999360274365574              2.7815630979456523
H              1.760195302183134              2.3032121869970372              2.517204482622976
H              1.1182165685613878              2.467665321831522              2.159792457058407
H              2.759215064238523              3.741829883838041              -0.17849265468199002
H              2.557323115085141              3.4821905049358293              0.491715893826896
H              1.071379157166861              0.6130521952662535              -0.3585096709219042
H              1.043081257845376              1.3334926407902106              -0.08582884890151157
H              -0.7177085903072746              -2.6185537954744253              -2.097144056975267
H              -1.4759736788387356              -2.778271339025261              -2.1941016557527404
H              3.7846588522118436              1.4219111884102544              1.5133304774733816
H              4.241689276453125              1.1773570561428934              1.0402498635679318
H              4.0348797374712895              3.622029958939805              3.4220110136459203
H              4.472347878919499              3.806779154775622              2.772752071288543
H              1.8152467417985847              2.2784013914037256              2.350908452992606
H              1.1075979802203924              2.4179189780609667              2.2768748927327893
H              2.9152888675690223              3.893518619529061              0.3416110954363577
H              2.2226953242510152              3.7415554798275474              0.5427943342629015
H              1.156740321137149              0.8823698584120734              -0.4972295791754451
H              1.1340576556771507              1.0810490949940597              0.2250046253773272
H              -1.0494803895465248              -2.6267934513685103              -1.644076315369065
H              -1.6397655721506126              -2.7113069970863743              -2.072987805759011
H              3.868749824194242              1.0447181378526866              1.5248065707700125
H              4.457885390450177              1.5127198355829836              1.318801601646024
H              4.22825472023522              3.6927951484901493              3.521152502238606
H              4.482457566829525              3.758627270354311              2.8356843181268436
H              1.3056020517320401              1.9659640734759571              2.6149501926552032
H              0.7583891449880145              2.341910182427048              2.4071325987958287
H              2.843382748522533              3.928847736387006              0.36372651551449703
H              2.1747262000722403              3.5653386804383316              0.22643600965438535
