72

H              2.290803047565328              1.742471041458336              0.6995539151176725
H              1.6084866567855072              1.6791145743389762              0.8242408042402535
H              0.16766343518472887              -0.12375742440250229              -1.9267331924339124
H              0.42628348824835793              0.3387513215624407              -2.342528692140659
H              5.379196233917622              2.269685856326397              1.0532975813635375
H              5.0284532730302445              2.659680173859285              0.5701563596107582
H              4.495484206537492              4.698186747337101              2.9322933190261162
H              4.011775548687374              4.1528778865403435              2.900470964360178
H              3.512580217035405              1.4427889350774679              3.223185752099644
H              3.3271767918311657              2.083699909477933              3.032737246551682
H              2.945285595260018              4.391073142334276              0.31628011247464416
H              2.7124716222771696              4.622139365934431              0.9617792245513658
H              2.328953138316958              1.6274069798514386              0.5954983277899717
H              1.9243876569876155              1.9701944939169713              1.0656862349786604
H              -0.009818695161965317              -0.25480495184071494              -1.7483143138146122
H              0.3972835799890599              0.21404155493208277              -2.227944254757315
H              5.218690884823021              2.2873332470865133              1.2145624010738119
H              4.786964937875805              2.585323903061705              0.6721095440430066
H              4.44578672595163              4.291790115152601              2.9946491822741064
H              3.921204632875019              3.8966230084486484              3.270563912092738
H              3.3959151435737285              1.5873794743786045              3.2122607112234665
H              3.274085340019442              2.2920180959447634              3.0084269259244323
H              3.2454516085594167              4.223444020935458              0.12272878747961075
H              2.7153841541485964              4.379713029328611              0.6530786201856041
H              2.3263856352560257              1.5916136635406093              0.761567680392778
H              1.808405633818839              1.9998751630875202              1.0671433886488975
H              -0.07509080160542735              -0.27459854111189186              -1.6109316455499758
H              0.19981402382307875              0.2179214894497393              -2.252751576984626
H              5.197586359425669              2.417132126136938              1.4337018294474535
H              4.960139915702138              2.27181471605755              0.7574685820013626
H              4.417256415115114              4.455832849630268              3.0543995253409917
H              4.043250563038384              3.7537129081684024              3.1779664095777895
H              2.9540843586524312              1.574329835574333              3.3508709703684842
H              3.4873438142245075              2.0153786376373053              2.9730007817931647
H              3.2006880666907813              4.2490091711434665              0.14693572307528402
H              2.771586378419147              4.379095473758621              0.7814527734311917
H              2.2660985432921414              1.822293031514912              0.583136544631363
H              1.7189237835495519              2.1705517112904396              1.069727246636516
H              -0.06230573540640209              -0.278405355205299              -1.5934147206730032
H              -0.04011639222107988              0.29432815906990983              -1.9435968208078673
H              5.265609165973758              2.349037712694084              1.0068828044434408
H              4.857419676358881              2.1663610280549537              0.48320037623161693
H              4.01645324167219              4.618590982327217              3.101068803528948
H              4.283839992732314              3.9115987144510203              2.965860708247292
H              3.019444049023669              1.7831683551666764              3.501677243268561
H              3.461858810270989              2.0853620568310327              2.9716988937496764
H              2.908277868080168              4.376797774528023              0.11268373267339792
H              2.9101706804358316              4.571219602036617              0.8434048259443915
H              2.259555232402239              1.7636548185942498              0.5705313308575328
H              1.6237904505179244              2.0567217751568094              0.6003276588068261
H              -0.3299667299886731              -0.46138802771330234              -1.991834193385121
H              -0.1239484675464194              0.25215727349198114              -2.2790331051956803
H              5.251433593265387              2.2849024602223              1.443795121615353
H              4.721621961663228              2.231595681462405              0.8651989518435497
H              3.8828834198009177              4.907323400496642              3.0335806871190623
H              4.0503420618964165              4.132538657211702              3.094312509580955
H              3.107436429651849              1.5728988563337745              3.089311868870549
H              3.4764033457941887              2.184468056140931              3.1622481498409183
H              3.0598506248984183              4.295959687681963              0.2941167412456249
H              2.631540495698861              4.9510115767290515              0.3910480210634713
H              2.377761270171757              1.93569319868473              0.23368313428344267
H              2.0210902773381045              1.556799770818801              0.7830726221915413
H              0.18923009630031626              -0.40648305136536944              -2.25994836770042
H              0.07066434028746117              0.33379564429356723              -2.428318304174261
H              5.269116146906472              2.5029709266193207              1.181160609696922
H              4.61106420573846              2.3423542257248973              1.1004083503152564
H              4.117024805480189              4.876391888323305              3.0452221864385183
H              3.9743784564755322              4.2498296426136015              2.662430476840464
H              3.1799057134991773              1.3718884081599356              3.4075038410316427
H              3.210308158338921              2.010236410881294              2.8372750393362507
H              3.1366283224624483              4.211550618735437              0.46817487664775803
H              2.6073132886875268              4.7062819073457245              0.46936895531135137
