72

H              1.8656310942737284              1.23422828781856              -0.3843247967712795
H              1.289598899289425              1.29674155267493              0.08077435337055747
H              -1.6472606973622053              -0.8361463655999292              -2.3119433145677637
H              -1.288159469188744              -0.7856472589904238              -1.732593466374534
H              3.7945468892409857              1.7635500505267114              0.8896091985188831
H              4.409525363333905              2.016251897305624              1.0395586128321663
H              3.63821406451111              4.130058717739883              3.1496826114700047
H              3.9367390328289913              4.1680762102886435              2.473403310325904
H              1.383140825588978              2.059086967923916              2.516455306864926
H              1.762690773790394              1.7578558223872698              3.0918162597444656
H              1.8430833968469487              3.9474518366970397              0.3202798478948486
H              1.3635779212983934              3.998265245455952              0.948962339703307
H              1.9266678399379704              0.8498632261536081              -0.4054265824470892
H              1.4897198038891373              1.1847918866606053              0.07806963650848817
H              -1.8258955278668403              -0.7088102442763533              -2.5052981738533533
H              -1.2784698903235192              -0.7351754571808269              -2.01118830200777
H              3.934818643411725              1.6490867096046442              0.960248502702017
H              4.381113460129687              2.2066408892570744              0.8822574160520253
H              3.632746411225688              4.661004961345557              3.017136443774889
H              3.8799712468545438              4.394103059033631              2.346351181106603
H              1.627582037284103              2.1077628557647623              2.446106047446648
H              1.8855380940119757              1.810605470834959              3.0196071354138985
H              1.8187280239049641              3.6097775798594856              0.44346242923673507
H              1.5425282966352445              4.181051734638838              0.7685429228721982
H              1.8252136960574736              1.1621153852900417              -0.3575111834451992
H              1.0967804788135498              1.1345819154936467              -0.2153267459955905
H              -1.771229106108157              -0.6730864911142528              -2.670776054593702
H              -1.1532494722099134              -0.7473458139198454              -2.193487905522808
H              4.023868202917728              1.7355322649959026              0.6163582978164429
H              4.400776945341076              2.3299960643188817              0.6754480108409068
H              3.6979762901843287              4.642050222184174              3.157687639062061
H              3.7541769008611525              4.437991512746631              2.4215169210437546
H              1.539410635775624              2.1630281319588716              2.2603958030085596
H              1.986138929090167              2.0513192983735604              2.8216551787858872
H              1.9259644581418616              3.7598807477707807              0.2798242281314296
H              1.48178939578205              4.226544648309697              0.7049696072348647
H              1.810906082221707              1.1256608767335894              -0.6230558582598582
H              1.203371988221469              1.3076819150792947              -0.14239834172750038
H              -1.4033192981931863              -0.5813152866019975              -2.4121085254099675
H              -0.8646911657593239              -0.8968385785679311              -2.29338169045824
H              4.0639759203424095              1.8231354922629894              0.710246868197709
H              4.342590932509298              2.3712907687319182              1.0914323465652334
H              4.085851089991257              4.1253237007458425              3.2093842686371588
H              3.790926583883835              4.515054401170743              2.6432801935408126
H              1.5070118195556907              2.279507270961201              2.3542706115110366
H              2.029343738249508              2.010995922397077              2.8041253636644314
H              1.7736771151729416              3.678414894091238              0.24603327097365696
H              1.6528811708140136              3.89828835444538              0.9430480692601066
H              1.4117404175597918              1.4697813591740208              -0.7156599143757384
H              1.7333538094764884              1.3218327326907462              -0.08626802721784732
H              -1.4305407057098833              -0.5153584668957026              -2.1688170765974677
H              -0.7362258291511529              -0.8589237674508549              -1.8931613447144935
H              4.45589184596131              1.7679423529822869              0.6354239589904704
H              4.342973717412702              2.447132483407059              0.6725402809302164
H              4.163400639939609              4.175243201906399              3.1077936448905024
H              4.040279462347632              4.294592588872075              2.405592176497785
H              1.7183994841505976              2.2926447816056252              2.6827328908104655
H              1.6627741681178494              1.6995713724957666              3.1366478340002177
H              1.8502945676475617              3.714424675711044              0.32122326632152787
H              1.6012511639719262              4.025452764011822              0.8868184162722115
H              1.8090282731734921              1.448643034929436              -0.42385537943748713
H              1.349720219299125              1.117401020307665              0.005092908424954992
H              -1.6157312447642624              -0.47573185174378185              -2.286637035493959
H              -1.3360931395660653              -0.98388792218928              -1.725812699777978
H              3.9369269449454287              1.7120226497720525              0.48953106279691966
H              4.395948197429925              2.1921561996907406              0.8078768220825786
H              3.8982109573725325              4.081799104567827              3.2712819270368096
H              3.983798035815384              4.109926404753803              2.5330820235264393
H              2.0123678776994165              2.1609901826565516              2.6083279073897025
H              1.5487737581631749              1.8490227464234659              2.9846868305290486
H              1.951134733651365              3.9030923205149937              0.4230190637178793
H              1.360801762145317              4.171251946255801              0.7392369176975294
