72

H              0.8018060118543577              0.8613583198292447              -0.40146533091896197
H              1.5139304700367755              0.7501991726091943              -0.5437750571937395
H              -1.2314728983644965              -1.6757485871490645              -2.457471589271128
H              -1.4544964058820775              -2.0920269274028085              -1.8344339773814886
H              3.6254723491325187              1.2828154042390978              1.0479523967383337
H              4.095760854138642              1.7827800080706235              0.7363373624217296
H              3.9713678664247074              4.367173785478861              2.269646140081579
H              4.061341384118593              4.15649215048193              3.0784313908836523
H              1.676723760508132              2.2092972966411817              3.0753207570163474
H              1.8227173721679202              2.050644139764476              2.400964090054111
H              2.516339027091388              4.025120985900187              0.2797312144415813
H              1.928757033632644              4.326670242799873              0.6915291883521779
H              0.8300408946852404              0.7028568387096235              -0.5796800506690231
H              1.525180397327021              0.815258107255298              -0.444871354474093
H              -1.417471759757263              -1.7488964881598077              -2.2254684788838413
H              -1.6605926668764448              -2.1551829631144988              -1.7887133579995367
H              3.8181686957673215              1.233277976000416              0.8893826204474654
H              3.9757112901377782              1.7924502529476294              1.2273838271940192
H              3.863687138287491              3.9195643070506754              2.481155380990401
H              4.037134859793656              4.141256820754761              3.1851112202601857
H              1.3101470046891928              2.167613208209273              3.0115332737417764
H              1.6718482986762673              1.9449522209110994              2.364605018926731
H              2.623979577202553              4.291958396089584              0.4939305888362753
H              1.9394196215114043              4.0183488285359195              0.7049949386798939
H              0.8600264545349051              0.7528862704851241              -0.2931512321464078
H              1.5553549739770889              1.0096664987894957              -0.19962606780821382
H              -1.474261050034581              -1.8561842871927587              -2.236917846713233
H              -1.656748569095124              -2.008492296840465              -1.5921668256320014
H              3.535425299508163              1.2070016128027334              1.2050031399644359
H              4.153340280969632              1.6395135093421              1.0398675017099868
H              3.970608960975628              4.154519690155657              2.3499081134188136
H              4.017264507474357              3.8303958613826787              3.097009164128122
H              1.4373666968842442              2.0004556089122745              2.711650625011229
H              1.9294599951138474              2.167930928658496              2.159411663083858
H              2.41024206818743              4.430890110384011              0.6249385671930594
H              1.7798066129519876              4.0155397250404485              0.785466091359736
H              0.817571110821115              1.1751722942329907              -0.4012977543819857
H              1.5735762290786783              1.3058049722042766              -0.2990783866628269
H              -1.4945171898672058              -1.690267209714356              -2.0864913376013123
H              -2.0221663241207013              -1.871315162887336              -1.579367783587716
H              3.3097324892395554              1.2070394912996332              1.0115166747097777
H              3.8326755738574168              1.6865898283310234              1.1187129374136284
H              3.9364102128075937              4.239030850522402              2.409066247373498
H              4.031276100827059              3.896073303853232              3.074314237731808
H              1.3837534753419038              2.159868328740792              2.7144199320015696
H              2.0968913946777246              2.044654655083413              2.320496639593555
H              2.4308620163521386              3.967673822128238              0.48660506117159513
H              1.669254993684105              3.9603340768298043              0.509711392234881
H              0.9151415196075524              1.1190857923165392              -0.6834352511980925
H              1.6051019514268166              0.9188791811165161              -0.4862992178194408
H              -1.593578140063892              -1.9908602208350668              -2.4461174376905936
H              -2.0582356468171934              -1.891680834504596              -1.868874771069754
H              3.9233049498648835              1.0663857258455847              0.9711475505875193
H              4.379881104066388              1.6377884031575514              1.2219024335937811
H              3.7081366062650947              4.451630479324734              2.4461573155143923
H              3.7540564559705305              4.102995756120532              3.099641150204442
H              1.2933613463865021              1.8963790175711663              2.6569687261938735
H              1.8293850414576223              2.2744936619738345              2.347422315478588
H              2.5192141334204736              4.088769800911959              0.2080389130704813
H              1.817300861471733              4.110749522094307              0.31756832533445173
H              0.7309935085979306              0.767549417098691              -0.40706610109620817
H              1.3444009224112417              1.0317146325622297              -0.7143678807450659
H              -1.3986946815171084              -1.7958269053610294              -2.7343204979869484
H              -1.6286178663258957              -1.9477784752105478              -1.9766937291363778
H              3.889504906458573              0.9550077992509058              0.916669140848646
H              4.218700021427496              1.589180728338476              0.9323245271421093
H              3.796509524756619              4.316704927111877              2.4842339137063396
H              3.4925836948208713              4.290183404794407              3.177069467110869
H              1.4963354623684926              2.0738701253387157              3.057702688803698
H              1.5621688631852715              2.230226286404265              2.3946722822196107
H              2.2012528280029366              3.912776894866306              -0.20097074513516897
H              1.922153138440736              4.0019733192149785              0.47111020213384674
