72

H              0.7201359347888147              0.7688511449549341              -0.3254037609475984
H              1.4171297848551312              1.0186623938148818              -0.4541296469470439
H              -0.916407571053349              -2.5312724644789015              -2.0493043256457613
H              -1.7111507377329749              -2.805588738342407              -2.1478337689752767
H              3.5505615760439535              1.0914168020735042              1.4678469305255852
H              4.190498578772798              1.3346988955455437              1.2916970673169397
H              3.6648406874575605              3.717145977741646              3.170785215255429
H              4.314258418762019              4.001469381709882              2.8788340165078874
H              1.7372122791562556              2.2372588426162863              2.3955943256007837
H              1.123075638805167              2.146273395313793              2.6152610225657567
H              2.7201757769842487              3.536081422595581              0.10689196476199266
H              2.0590419955255292              3.748684225688809              0.3031401054137935
H              0.756983027986894              0.9920263765381909              -0.3987246932480504
H              1.4081448298073531              0.7191243190140656              -0.43587336589968234
H              -1.4043038003915178              -2.589685006020445              -2.2551682364144057
H              -1.8921370295377435              -3.015050616621205              -2.2441195656884974
H              3.8986812186725146              0.9724241413232028              1.533887237884563
H              4.55070235457623              1.2803914735858262              1.3445578203381325
H              3.6414191515907213              3.9913137252252975              3.1946857781851716
H              4.320180887801256              4.162366732504453              2.9947822123226526
H              1.583202039190799              1.8913957236719905              2.411163284924947
H              1.2463526665795408              2.497182990724856              2.4549200123868906
H              2.657797286963775              3.9501425090224087              0.04544083007509195
H              1.961093722316252              3.720504550036443              0.326288540544802
H              1.4195608986397572              0.5969630078847199              -0.8418898508489001
H              1.2412985426601346              1.0969392529013346              -0.2600271523796519
H              -1.2884719586520674              -2.3808902143868105              -2.3681942004593934
H              -1.7971476823282113              -2.761388733524348              -2.0834759057479966
H              4.040204914301592              0.942423139319397              1.320563685471999
H              4.515042855856696              1.3297064359577417              0.9444292945889508
H              3.6925137526194183              3.703517818746295              3.2692134168858007
H              4.212044957499706              4.287240881659514              2.99809081862737
H              1.61471836751562              2.1598911583733735              2.5945031528549745
H              1.1073207323954875              2.610480451893289              2.3125613571025325
H              2.4363205543636504              4.306258232861328              0.02483739154404911
H              2.0329334458266906              3.7012430311390014              0.1800899495910101
H              1.7555996566914136              0.7846714916933955              -0.7261751639886959
H              1.4176722315729071              0.9429462960976681              -0.07701739578574968
H              -0.9741554054481463              -2.2221392494304584              -1.941601999948768
H              -1.7431120995891558              -2.5652122260250882              -2.113324865327802
H              3.932141571042199              1.187181964400604              1.522000936624087
H              4.461324739762872              1.3846066940200321              0.9182388622145625
H              4.067469951466449              3.6195468558505954              3.211672644098012
H              4.4899830274391315              4.182592420906369              2.986435104855574
H              1.5378051933314094              2.2117926899090414              2.8956039494301895
H              1.292215009513806              2.4314141353663796              2.1943591812262437
H              2.815010401053089              3.861540650476816              0.2126000755231826
H              2.1450254875249115              3.824613200337615              0.022218028067748342
H              1.151670092184429              0.6812298417550365              -0.7527417862098111
H              1.46102562033675              0.8630958714371735              -0.11982093367000511
H              -0.9780589686020548              -2.529734490890368              -1.9716843541702649
H              -1.6688510656465942              -2.380873413019738              -2.122584638636608
H              4.227934559495696              1.0582879745565168              1.434795901054922
H              4.4771216747579015              1.7303335643592097              1.219769861869438
H              3.895551186648958              3.595983754247974              3.3296794551583266
H              4.177506577753401              4.052416935874811              2.855440232807403
H              1.3248401261141036              2.1502091409430273              2.8391204312454885
H              1.2372359910116955              2.303085520114406              2.0973142580054396
H              2.9524510757274705              3.8245291531154466              -0.22601811755480436
H              2.434487291509174              3.5681046957450957              0.1751039999623629
H              0.9596942969407958              0.5843654890095616              -0.5525593421960764
H              1.5651096317536177              1.0332568911582451              -0.4363367564950874
H              -0.8545625905343023              -2.6003129478127374              -2.2772049962736043
H              -1.6541144837197395              -2.608940904727412              -2.194015457123424
H              3.7485707650065216              1.3473525231161643              1.544663462513465
H              4.364194351617006              1.2088175518916489              1.0889878260750043
H              3.6783307499132136              3.482474949909994              3.086398576005196
H              4.101992999355026              4.081882230270151              3.0114600043625988
H              1.8635027701757862              2.1735052700411437              2.610568923677564
H              1.355477602642401              2.418513971793812              1.9606059768147506
H              2.814717233322239              3.584333793828815              -0.16334016032669313
H              2.3820105922102597              3.677681163043255              0.38278039084383886
