72

H              2.2487741129419936              1.3516423043908008              1.0247904152423208
H              2.0529720989271207              1.9759898110402943              0.84822352186911
H              0.9861450667042938              -1.079048040352882              -1.7272320772306937
H              0.3544413921590232              -0.6486956334404048              -1.6801076978665896
H              4.757777772348449              2.476762377369678              1.0149595336159478
H              5.116233353731119              1.9220518616624322              1.350763559361079
H              3.8338695218602687              4.700900906109854              3.172511869055885
H              4.541446241443578              4.776727122421645              2.9979808013914018
H              2.9410797689560804              1.7194433473465964              3.306297449429958
H              2.7765089039367195              2.022687699466098              3.943608757518422
H              3.1282962154717193              4.181863009669856              0.8639647716639385
H              2.9563918998760554              4.162844081054164              0.16127503642746863
H              2.739192418083112              1.4800205549394083              0.8350998477756771
H              1.9512209372866987              1.5316732558812005              0.8705567664956166
H              0.7973733039164734              -0.9135758088548389              -1.8261971618833301
H              0.09511780642079738              -0.7229501444637313              -1.761199512487416
H              4.80418134418901              2.481300195165394              0.9532117166809919
H              4.944204291451849              2.0310160116050633              1.5065307756130801
H              3.7801015039443966              4.595936950224821              3.0278126511573
H              4.434707815153699              4.8500080438499085              3.0314138552372194
H              3.133378386378001              2.191095610196754              3.092880565999529
H              2.847462554857735              2.2933848819368126              3.7964123257282356
H              2.7120256044073336              3.8452229786734087              0.6008416952840037
H              2.82098432609737              4.305049855729511              0.10009124977967697
H              2.713789521520262              1.6473207845445197              1.0852120613963558
H              2.2288979287295696              1.6741696992637136              0.5802996596954516
H              0.6867171339458995              -1.0072306396025976              -2.1709792830785632
H              0.2878936963179085              -0.426480169002206              -1.8832524405330564
H              4.605344759450839              2.6138867203887766              0.8408137687278465
H              4.8849003176496595              2.0104633312827658              1.2744928128501594
H              3.644494413313914              4.538418726372832              2.747702210183761
H              4.305839037324627              4.837546430165003              2.976196444257722
H              3.115233662430068              1.7924443214950971              3.0601660708750322
H              3.19040987085319              1.914250309205038              3.7855307805231218
H              2.5235522175975156              3.8289406662715257              0.6911483032903488
H              2.656761486058337              4.291977089228279              0.13679662555807812
H              2.585370370248233              1.6440076492128157              0.8785346047912824
H              1.8824910228943637              1.5803327679193182              0.7819532372051545
H              0.9711157313500408              -0.8755838278883341              -1.9670104541215907
H              0.8395930505528614              -0.2584620604743307              -1.771079880521112
H              4.728775231889546              2.4430235970410314              1.0806250984861838
H              4.6688376594824605              1.7554527339567536              1.150383031840919
H              3.6734882907073256              4.600393320916072              3.1212259405902025
H              4.370146163799288              4.413528073211271              2.8374696943879476
H              3.1673636773080873              1.4225111145989464              3.36983025520477
H              3.1472684663042125              2.133131818704226              3.698310166293253
H              2.545482834671352              3.9038856034772116              0.7050966655922408
H              2.6325499758941535              4.2827532369050605              0.035214459133380734
H              2.313094114172121              1.8943857549644365              1.1167396388864677
H              1.6794076546497447              1.7384829377567685              0.8022058145318708
H              0.9505881613613509              -0.9450031711226673              -1.6861565286860227
H              0.8205680368803574              -0.2040714283217331              -1.673086218059362
H              4.786708383405512              2.4928379074272633              1.0536629366394732
H              4.715396082773323              1.850019544933612              1.4822862019410772
H              3.9638301248335512              4.586102644408888              3.130761075942577
H              4.644218293520845              4.58515172849258              2.873650034904625
H              3.6700024350278184              1.611943858792298              3.5062378780442303
H              2.9680755372940935              1.9727853015100243              3.64375545333324
H              2.835851286413202              3.9065471944435197              0.5241902712132961
H              2.973236416516236              4.56001652478735              0.142149171882324
H              2.2278653056446385              1.3432552019612476              1.1490290542296338
H              1.7374575969551334              1.6651239727968543              0.7294349070187593
H              0.7838190132125277              -0.9793771719633121              -1.7515704191320964
H              0.5564736308890961              -0.25803580595337455              -1.6378856935642618
H              4.67908550583534              2.484274001306583              1.001876081200398
H              4.658821274919621              1.9107321333900353              1.352993589553535
H              3.823316316935042              4.727905796717501              3.248833388869696
H              4.55901140376373              4.650035680039547              3.1195058594569347
H              3.5826329572157682              1.659229314032926              3.404083055494973
H              2.7651654604271556              1.7563877398362722              3.6612257186677537
H              3.136115043259081              3.807677966783429              0.46016559020809705
H              2.961347777562345              4.442078263792379              0.12199220440756085
