72

H              0.9138371748639773              0.8700534983521144              -0.264729649471139
H              0.8776894917750822              1.4190949777574065              0.12891902139484457
H              -1.3816188151666295              -2.1028428671017543              -2.0586948182183615
H              -2.0887755504110466              -2.1324270620315398              -1.6784247531596737
H              3.5550158317883693              0.9641900306087169              1.1248469255632632
H              4.112995883998442              1.515908948605942              1.0214740435789809
H              3.7058717967552153              4.010905201033831              2.669555809566679
H              4.329668560362442              4.096780307853965              3.0176591175995444
H              1.6212974409501495              1.9166515083193139              2.8942722630665534
H              1.7349350537563786              2.21139645013432              2.161306108448761
H              2.524731767549981              4.074617490565573              0.34569386789153356
H              1.8957032217109633              3.9934445509981003              0.04644529699324415
H              0.6826735465759941              1.0488645396259364              -0.27537492972689065
H              1.3190604056435113              0.7381048623768485              -0.2136332899525763
H              -1.40282470190481              -2.2559232116375982              -2.3549585542910254
H              -2.1188628731253605              -2.233267102551542              -2.037998826319869
H              3.7934819492326652              0.8905652490684967              1.170307140504056
H              4.503904998861975              1.3570759956148504              1.1859481483425665
H              3.659808930881492              4.114669019891746              2.603252596837821
H              3.830983500985834              4.0735024299415805              3.3286586663235127
H              1.3070093529418838              1.9054291592707369              2.494362203376734
H              1.8458468704571767              2.395639449777789              2.4849522090032257
H              2.5690233766487904              3.942751317207079              -0.23256792333606888
H              1.9610612612608551              4.026494084500556              0.24094999063563094
H              0.4613106970394993              0.8416757302608119              -0.38392956843473025
H              1.2026083755449637              0.7970291300870765              -0.22735637965856142
H              -1.0974230369660747              -2.1476507495046815              -2.53376225153715
H              -1.6331001983577316              -2.308427083955411              -2.007945885214525
H              4.0700034507298              0.7589581311407679              1.1778537502592217
H              4.299137373556154              1.4668370255279646              1.0755717965272151
H              3.6015329439206445              3.9155203037686195              2.5818712638963266
H              3.7616652646850746              4.417264222627996              3.1580737086374437
H              1.7310252928309038              2.1535674037326356              2.990991863026887
H              1.4018361986025905              2.246584422963124              2.3577665425666114
H              2.4857616066562422              3.945022732537102              -0.25399948019445545
H              1.9306914660329462              3.8785134472864318              0.20238184220221267
H              0.6732714451087007              0.9160374025663686              -0.3011131896587319
H              1.2966802285937138              0.7067591135550604              -0.6132760375547951
H              -1.1108227896090714              -2.0597749097566775              -2.448009022773089
H              -1.6878592651512283              -2.37648322700857              -2.0066295104622944
H              3.6287703114866723              1.2123637092766353              1.254835898797803
H              4.119277920178158              1.4422729568214174              0.7666716387964264
H              3.674705311817211              4.0502696368883315              2.5964610906842482
H              4.238505335889062              4.29396187868594              3.0120314865491835
H              2.13443107432903              2.3150255244729046              2.937436356217084
H              1.686956373477879              2.07264566495452              2.317698857771241
H              2.7014768026919107              3.848871326868686              0.14954907519503435
H              2.1167246220220677              4.146618057506138              0.3571517940347214
H              0.8524415077137107              0.8895317619958717              -0.08980842966160647
H              1.1102047685641907              0.812619148554333              -0.8389504889236418
H              -1.1678434728780944              -2.230384674160907              -2.2458427882507532
H              -1.70591911488408              -2.344399864438321              -1.7995902871332978
H              3.788646760117829              0.9326179922282393              1.0777634643960126
H              4.1510872812301285              1.608485960446457              1.1750128198055756
H              3.667902815525319              3.7377670829629928              2.760200922268343
H              4.250939211261476              4.065688392568308              3.1205786275790075
H              1.6111107730912415              1.9526378515304477              2.882338817680136
H              1.3634193676076412              2.2502656200213447              2.239047261471944
H              2.5782088291349754              4.395937161978158              0.184139305907348
H              2.16758695020134              3.991668694334075              0.6584175949528333
H              0.7761676861749642              0.8566632701217092              -0.3164450433740887
H              1.361338297450503              0.9830478245086667              0.1120659534873912
H              -1.2640946293416726              -2.0841718933609883              -2.115909904132117
H              -1.7036522905688674              -2.420686509608719              -1.6559062448218589
H              3.682892877090436              0.9124732814870661              1.399514002979245
H              4.209513254189853              1.3690569782476956              1.1772455243593045
H              3.9096658935330275              3.75014668051914              2.6639674746526096
H              4.31457089913937              4.114329580447151              3.1637945107671372
H              1.3506000143858456              2.031754589699684              2.688263122221348
H              1.858484328223188              2.155109615591716              2.307048915228442
H              2.436819284219564              4.28811671142002              0.538231832486396
H              1.9077387776896921              3.846954904566253              0.3599379678989859
