72

H              2.11527899913467              1.4063914750511477              1.1209332764867843
H              1.5837182604185833              1.704286608045181              0.807108891684854
H              0.38768589310661455              -0.5819282166971544              -1.655858260648202
H              0.22010061122024352              0.011856450729477941              -1.8863726020726848
H              5.648296419962272              2.4944348983763427              1.280587139942872
H              5.285158934910249              2.0085519115839148              0.9358265291360476
H              4.05552696706744              4.908763614208285              3.139824760716728
H              4.31380764849948              4.258587879966544              2.8126316860609855
H              3.2061649824725147              1.4885394506191496              3.116944395176264
H              3.2782263252666652              2.2183041666069165              3.0797077985240073
H              3.186772279857699              4.240747001614995              0.33912475388980723
H              2.968334895520081              4.674367396356037              0.8636638623609831
H              2.3545432237220734              1.4697882407854705              0.675109446856569
H              1.8757706254363438              2.0011388349078967              0.7615868128861758
H              0.2644662726053881              -0.8471069612763298              -1.9931590853510102
H              0.02767685305086529              -0.09652277855593565              -2.1223780291851
H              5.472985836151586              2.5648257040084492              1.2934090804868665
H              5.22345378520879              1.875212353757605              1.0651974060819935
H              3.710677502447409              4.799605916258053              3.078577610082452
H              4.253739518825631              4.367199572921217              2.832558850934406
H              3.068327222678632              1.4176720952938902              3.150588773273541
H              3.2288491423766903              2.154250194876853              3.173817526312499
H              3.1173434963234983              4.246978968969613              0.724288367256498
H              2.688335763509466              4.625345149241965              0.23603294261535818
H              2.4809388265891417              1.4775962997311465              0.6271809102235356
H              1.7525612209686146              1.5297995837713818              0.8368008315211657
H              0.48415452847903134              -0.6170293246201509              -2.048988669458777
H              0.24381047898350244              0.06899868759070855              -2.3372676832430272
H              5.582328627566221              2.501239593860088              1.5022322672742554
H              5.097490497817583              2.069643362189839              1.2235331650112586
H              3.97377140320594              4.804792257372709              3.119440872135629
H              4.163119564533328              4.266071093932731              2.562830001836392
H              3.0494202134741557              1.2511604096782278              3.165622101201345
H              3.3824907878293926              1.9426065861382331              3.1894473438090616
H              2.877813802978703              4.120175866012769              0.8043971161888449
H              2.584241642521097              4.66560938162267              0.3498434823601883
H              2.2983914952221145              1.769652868511806              0.7646056562393807
H              1.5118056529446322              1.88858500179903              0.815919940779078
H              0.5954673215804185              -0.3794425403008914              -1.8134991404056
H              0.5937061312543529              0.21483090468332458              -2.096219939806664
H              5.632758433250199              2.5138337450141917              1.115729413784237
H              5.086140622798862              2.2043247259633203              0.8065525632719763
H              4.090269860908558              4.540705698222784              3.1018173180059403
H              4.242154373369456              4.196827787902739              2.3878220775718275
H              3.8090520895322793              1.3362141340390108              3.3608469519626074
H              3.148459787751664              1.7193820790724128              3.2636828794570074
H              2.80632721308342              4.025435776162687              0.6088232931511857
H              2.831688505762704              4.768101210798205              0.8084083562394198
H              2.0185700549255516              1.4572274859916765              0.8431681057094454
H              1.4329825049960698              1.8831678117609663              0.680359728881563
H              0.4088482360434725              -0.4259400326659494              -1.7707361742251064
H              0.7190748899378056              0.19606827743562338              -2.033821100476168
H              5.360787804118676              2.3689564521502233              1.546047820291159
H              4.915055109590079              2.2063183567186626              0.9800683437722907
H              4.27366371117815              4.630352059379828              3.1397785631618826
H              3.929423485467336              4.003258448373744              2.9285426093450106
H              3.4826250341188763              1.0701927569990324              3.4743194021040447
H              3.4865531991940584              1.8446950397668251              3.2050365990228045
H              3.118834970080558              3.9085116739831123              0.4383913330789231
H              2.9076269508003967              4.65676150792508              0.59934183380825
H              2.1460719709208917              1.3135797863142569              0.8499439147459867
H              1.6571670708539927              1.9119691369207739              1.0103606184703
H              0.6578990212199627              -0.6294698435483363              -1.7232746334927136
H              0.5250342614519018              0.09720292725250226              -1.9753440116136178
H              5.479960733242307              2.6004985864037926              1.4599711480788444
H              5.042198747568345              2.0296611096692936              1.4400148231524144
H              4.287143360446855              4.755753101749048              3.1473401085903525
H              4.292541756352746              4.115496130710694              2.721933880312498
H              3.1463699437510693              1.1916555946576328              3.528145676333618
H              3.298313064746046              1.8260590803881414              2.976952661750965
H              3.457665575469811              4.036810774199394              0.5326535380809053
H              3.0650533171138084              4.63483260908448              0.6397184956212032
