72

H              2.549429112594749              1.6496484979202073              0.9823864420767406
H              1.8886592113409677              1.6152625822357514              0.5848986363209122
H              1.073761971282354              -1.0174807189352981              -1.9118738322516904
H              0.4402196083177042              -0.6763220722127579              -1.6696528468091316
H              4.846584588751605              2.6651613494861226              0.7752892610540566
H              4.726265624243432              2.153732174118333              1.3457193441639497
H              3.8071773513631415              4.627063311541485              2.9876053161948715
H              4.50911471099458              4.7805088603631205              2.927405769118976
H              3.3731862505862855              2.0878111261659367              3.3834700233382358
H              2.7428771137067542              2.2252510575103286              3.8528906460958674
H              3.0654821002891985              3.85025396386251              0.690626198627576
H              2.780264246548765              4.2900381034482535              0.11982428330642766
H              2.4671453842712947              1.3709028179890557              0.8752709199304747
H              1.9994910700262052              1.8347587005126245              0.6246417862928708
H              0.7153747045076109              -1.2728674643030347              -1.9572584587363453
H              0.3537551774671381              -0.6682825623516353              -1.8556953034270778
H              4.568261426431379              2.668572891904951              1.0352629023487092
H              4.918438149712634              2.059256463629609              1.191616602025661
H              3.6591792192581183              4.543216836228336              2.970653295127473
H              4.368935208976298              4.5125192392166005              3.0236214370406147
H              2.9602997831748152              1.6591718444734997              3.503651153619873
H              2.8910314116325284              2.084265709809019              4.205338374028559
H              3.0125538422959774              3.8561265830501976              0.8403113857232535
H              2.701150746187569              3.9892538647621794              0.10863217968726496
H              2.722282777731481              1.2703512422641055              0.9094537305497944
H              2.0471909035866176              1.5496414796582012              0.9956673074835148
H              0.8880876266204291              -1.092975259621212              -1.8204344393321155
H              0.33233953787939385              -0.5971557220994796              -1.7390702666270428
H              4.579481502399084              2.4383169682632326              0.9275141005485502
H              4.8445090374157465              2.1148742718701765              1.4980521068289094
H              3.892631418368611              4.129917336724003              2.9785761800327384
H              4.437650940487008              4.676405647876775              3.0337054749991177
H              2.8956542072509395              1.8357564398946276              3.356554656259938
H              2.892993616202085              2.2318642255333803              4.027227802022768
H              2.6584473126116333              3.967353521167327              0.7662981222208667
H              2.8904811764892937              4.005601277845719              0.03423058879374585
H              2.2965685549118158              1.743787848066828              1.4109937334328193
H              1.8666739563669157              1.4497378534494245              0.8288383575482511
H              0.5699630752233878              -0.9227690960853672              -1.6492667122674936
H              0.29845725605707024              -0.20674641235304306              -1.5958224969260153
H              4.6029356134489765              2.456543783895853              0.8998645632845302
H              4.844281699948517              1.7549590878749206              0.9784545768037296
H              3.920077049170885              4.332456516114674              3.0586348819368014
H              4.3741722369315745              4.863883971412147              2.959401914965215
H              3.385889895159673              2.2491865392009913              3.097752029283432
H              3.0727563760270993              1.971443800231362              3.770477802915828
H              2.375493042541981              4.0987531468436025              0.5362135410023126
H              3.012330891522931              4.399738750580641              0.36700905352185376
H              2.4177382975220607              1.5126518839694818              1.0511474113258934
H              1.8578463128245075              1.826760644153477              0.7520810269740561
H              0.6812299334667455              -0.9416565127509127              -1.9706867631166447
H              0.3907307159749961              -0.3454585986484332              -1.5295627792543753
H              4.350849638387463              2.139904933175507              0.738868694704246
H              4.699186945731696              1.7709211018294853              1.2956402441187804
H              3.5174731585443237              4.653093863000954              3.0203565067241085
H              4.243256286833411              4.704830703511637              3.104579725181134
H              3.462905770111705              2.0996556050138104              3.3281440113122156
H              2.8536409995478986              1.8209109896073632              3.6468340757764732
H              2.664089813574441              4.104056648854249              0.500835545186488
H              3.022835137799888              4.3425306155317625              -0.0994800292974585
H              2.4549728944452442              1.67569652012951              0.9551650334752304
H              1.741595018024248              1.6254951230945145              0.6625380556424042
H              1.0666406203609329              -0.9559531676539427              -2.0064716160523095
H              0.5747359837532551              -0.5241939996485522              -1.7629292499307043
H              4.842668138866949              2.3291628887635287              1.088567922250431
H              4.8966861531277175              1.8936675018006428              1.7633432618111191
H              3.761696768056653              5.002023839894513              2.8907575151400593
H              4.413268988411168              4.695194140359064              2.984647558549699
H              3.073857334056239              1.7452221377873383              3.1797687871979234
H              2.9703456434184345              2.104130309019103              3.8985895203199243
H              2.9957862926980448              3.931944276475551              0.5732518575746713
H              2.9207579168981113              4.483662365722995              0.081843744659143
