72

H              2.253882625535007              1.4885987145604178              1.3636759723021474
H              1.6383259941978079              1.5154070533175603              0.8796188658071035
H              0.5224880525268616              -1.1218557826334616              -1.873714310878844
H              0.26154418559680936              -0.4043133097817849              -1.525913691719105
H              4.6221142090491005              2.3023434147994157              0.6971323327360696
H              5.124446019722801              1.8399798719785574              0.9667070697026107
H              3.637979266369643              4.293822283854946              2.799132131557222
H              4.278926917643062              4.7103697479039255              2.9870558147929347
H              2.6670346337037256              2.3197581422302154              3.3913815324249272
H              3.2159802322241196              2.1451990509790746              3.9985638359835787
H              2.4766751729807903              4.544420931051475              0.715711049826372
H              3.025526420097289              4.07248264009816              0.3818547230223811
H              2.271880953755902              1.6690729461904052              0.9114063600592054
H              1.57572889725628              1.3872061501209105              1.0006735772534059
H              0.5132429081177835              -0.960163013630598              -1.8703710465123784
H              0.14126398263737006              -0.5195516259292823              -1.4934209406688985
H              4.5204595920406              1.9551608747247178              0.7078382389850565
H              4.747950340984198              1.9834850887766455              1.3876064836849151
H              3.516760231454289              4.494899198575131              2.8495523777229907
H              4.222411195090972              4.706370414288536              3.0710161526296993
H              3.319192325384077              2.582443177023696              3.504116847792107
H              2.8601634121275494              2.053855807332515              3.816315937446189
H              2.5826646989811284              4.283148461675485              0.3853725879102949
H              3.278158056660116              4.267312406649061              0.057549052583957754
H              2.174033589149858              1.5779140299342218              1.2394534490639875
H              1.8160131451653971              1.5445357472142844              0.5511555897282411
H              0.6789161607523807              -1.098431173093489              -2.110733283135675
H              0.24082295997750863              -0.6499844111969258              -1.6749832599594396
H              4.751648821855097              2.249213822082378              0.8153463525146679
H              4.844497742169701              2.0795171947522157              1.6330095574917882
H              3.640087754988671              4.816869076635359              2.6382853623816676
H              4.231744274408605              4.800901307507788              3.00498716488538
H              3.106121477238103              2.2917884695795534              3.442099594355205
H              2.8890395063760255              1.7801254205799935              3.873023291770392
H              2.888468105820323              4.273382696870674              0.6889927742905794
H              3.1907224188223506              4.250571372329164              0.004636112842247713
H              2.315891548176812              1.2333178503210611              0.8127385601840422
H              1.731276695935307              1.6730606559830123              0.8204741738171029
H              0.9709546054980177              -1.1041436396231565              -1.9082664008721142
H              0.20411428654641195              -1.004812057364949              -1.6350754568357118
H              4.8819382054948655              2.4253098916190234              0.6248627668437676
H              4.951644798681457              2.182124053017319              1.3750573349441324
H              3.625264764243296              4.5400740178642485              2.880989309621606
H              4.300160653508744              4.659238134752612              2.9119696397931913
H              2.857504245777311              2.440218550239518              3.4150754259738387
H              2.6997699539850113              2.27609741367028              4.193421417254876
H              3.060254662200448              4.279671728535491              0.7926040275110737
H              2.8705035316623895              3.9365849470505454              0.09445169429099247
H              2.460733691966046              1.559205738439228              0.8643984729015536
H              1.7300375673504473              1.5214615267381244              0.7384483664371847
H              0.5745398915408181              -1.2417696227666584              -1.8269590394299697
H              -0.07177464713336418              -1.0846929895859831              -1.8590224682266308
H              4.712873052874377              2.523075652838687              0.7746958942396206
H              5.0482327018394475              2.360208573272592              1.3985797293752038
H              3.74264547534142              4.358275795944069              2.562178092470989
H              4.261817681973231              4.700193412352515              3.0272049452163645
H              2.6760780582125094              2.4926492556956608              3.7181795967593256
H              2.846003839643646              2.176263511279028              4.357875276294886
H              2.750311275667222              4.0906492930613325              0.794753369021191
H              3.1156805865053596              3.944036869617684              0.1900611861718066
H              2.524898310986385              1.146238061904886              1.1023074997907307
H              1.814051839646819              1.0617010465410164              0.8319898059307113
H              0.4360678060694322              -1.1291725797001082              -2.0515379031196965
H              -0.007818231338983864              -0.750427569431066              -1.7434207526338432
H              4.667463353881703              2.3652445122327994              0.6532117140423431
H              4.871340634428459              2.281406370011376              1.304957909699091
H              3.786528747784724              4.254033649775494              2.61070266723167
H              4.049294493517739              4.6863580175926325              3.126886881141718
H              2.769056671282296              2.2962291393013636              3.454226631438096
H              2.823768953785089              2.1081060250093615              4.206876755189409
H              2.5005485801004785              4.128272154063241              0.631247201445883
H              3.0001120501990814              3.9271095968790286              0.14175867320661126
