72

H              0.9615157947721233              0.898199441494907              -0.5457045551696562
H              1.5543292819023042              0.531957388333296              -0.7399412090646609
H              -1.043556071625481              -2.318112270083249              -2.459339484104206
H              -1.6925970659986054              -2.5190595847812713              -2.1837221225936765
H              4.208223881257096              0.9155212683670747              1.3871389053030014
H              4.520960102472122              1.412194960369274              0.9545215997407372
H              3.7282464157981567              3.722722695881573              3.0107838136673744
H              4.094058877016329              4.345287539250591              3.102639882065171
H              1.4209912995848342              2.14749636259263              2.814038350067337
H              1.6761526863383729              2.5368766698367184              2.1971779901817183
H              2.6414664801714065              4.091170395081388              -0.23215944154629337
H              2.2852642717834115              3.848402045721387              0.3613368965552976
H              1.0963665655188566              0.6385374599771528              -0.6402977255501006
H              1.547164168413982              1.1617358688869575              -0.35330665984229587
H              -0.7185373091794629              -2.33950996231185              -2.0869618142288093
H              -1.4896224514205194              -2.2311390719458855              -1.8204778073603352
H              3.7928413935609355              0.9989339090476084              1.3577566487348127
H              4.094143346347314              1.5279037335573018              0.8365344231196078
H              3.9139238324504317              3.5315133726284578              3.069578526123836
H              4.393184579560686              4.062551935703228              2.8584771735991814
H              1.9345709933423594              2.2376645916902973              2.826214479489837
H              1.2641364199189717              2.320848728861534              2.220201998150577
H              2.791539005746008              4.128892819607922              0.11303296728412383
H              2.1617128414749485              3.7395535621882368              0.3921630379816567
H              0.8717898742499066              0.9755432164725224              -0.3849622357922171
H              1.6322699247892445              0.959535981268678              -0.2387138969482188
H              -1.0415665283251705              -2.4601642077728325              -1.8085834062959232
H              -1.8345624065460697              -2.4228370935688077              -1.8683337218720506
H              3.5854672592798615              1.1299226366282378              1.425096405392176
H              4.225555002280959              1.3920910663869677              1.2931524078830439
H              3.8937693229447223              3.6805844109813997              3.046621167193389
H              4.54253987912041              3.949474189060873              2.9903726922862233
H              1.5932019731834572              1.9382813448972285              2.801292729630528
H              1.480007950498265              2.188599845234794              2.136486662606631
H              2.882279654520675              3.8834343056416647              0.32584142561644386
H              2.1475378624134898              3.7996895273582227              0.23407922033640682
H              0.7763731315476513              0.8152286178317855              -0.4787196668895353
H              1.4682191448065187              0.9525100836198955              -0.2706497380435636
H              -1.3410584420790799              -2.5111879907989154              -2.2188885992160223
H              -1.9884583162216822              -2.6481082595065355              -1.897894945609048
H              3.884164074258033              0.7942189895999927              1.2763225649893042
H              4.450382516337374              1.3200698977082495              1.4231034087710988
H              3.479016400501508              3.762364113151986              2.977272437207117
H              4.09669991489704              4.112066824478379              3.1252539732129234
H              1.445765717173919              1.8385523038039624              2.663601168492783
H              1.3173169375058489              2.3768447025580035              2.1618390625098716
H              2.547729556320765              4.132167795708904              0.024657412966014227
H              1.9578041506230168              3.701978212444861              0.1411304827767952
H              1.0128301694359982              0.8199208337792774              -0.7123055632855221
H              1.4605341179149105              1.0043999438073714              -0.13393753261092392
H              -1.4149436503441133              -2.212712040217234              -2.354109311924831
H              -1.90850729824176              -2.7472001576291927              -2.126646254974843
H              3.6746277716707105              1.056186216161911              1.3563963705275297
H              4.269298824596787              0.976955861928072              1.041658710197597
H              3.5966092197531014              4.000478253302209              2.728947936493187
H              4.082985929643819              4.258316605870142              3.263483854523089
H              1.877434531218983              2.141809794558456              2.8024072532666153
H              1.499040000656524              2.3485163374756897              2.2415193908590796
H              2.483927711487871              3.7236307752699984              0.019979302994341586
H              1.7317569438683325              3.954289328993855              0.07186926199503227
H              0.7627948600759785              0.9501064176876638              -0.6088706154722737
H              1.4291258592474019              0.7377610371535478              -0.44175641308545993
H              -1.254242214397641              -2.2479479882977675              -2.2764690081735273
H              -1.9185994963833233              -2.573578013708353              -2.2084262599088995
H              4.012750902839849              0.8821429664538787              1.2260467414126566
H              4.421680898828908              1.5085439707022057              1.1106437570127876
H              3.601161853543395              4.002481057646793              2.9455906133967655
H              4.182661004870807              4.3870599273995              3.029777917302998
H              1.6873050032919268              2.1773891511246224              2.9409245769378867
H              1.274933960654147              2.2663823811147896              2.368616981060829
H              2.6559489982165654              3.8794861874144235              -0.16029338529168938
H              1.977563140855288              4.010381375745941              0.11444125714576736
