72

H              1.6914357121021868              1.844966198396752              0.13965615129390377
H              1.2571522470019632              1.4613235702476912              0.6242588913205982
H              -1.4021871658348815              -0.2375978526101791              -2.2472851763093784
H              -0.7387383222473454              -0.23095687315821242              -2.160509029968016
H              4.38786585767151              1.7304525582616905              0.9596394731247366
H              4.6760179320045125              2.291156286772512              0.6522238696134248
H              3.4304728061262284              4.084957608454673              2.878981542250606
H              3.8934804218430283              4.545108500840881              3.073801628657342
H              2.212540961737098              1.5868661080144526              2.865680733523886
H              2.533901120448086              1.8233055839916015              3.522512621655672
H              2.530270279383578              4.219696763278634              0.30612654486697793
H              2.054849178171116              4.039039644355944              0.8039905261992677
H              1.4790035365454106              2.0574910637779036              0.21437575504459477
H              1.5328083590670403              1.3924138990429649              0.23903790265153266
H              -1.2988163889653217              -0.31153050889706435              -2.2087157636376444
H              -0.6373400712532451              0.081180737988561              -2.341794619900354
H              4.464668450728476              1.8931195383200863              0.9221919154218254
H              4.267461932898743              2.3872451926019487              0.36209140819011526
H              3.4442796284526866              4.4893864500057825              2.3764099919412445
H              3.943660569268163              4.551262964128304              2.894080565909299
H              2.0546367043826264              1.403359729499345              3.1613051334084985
H              2.71152237704223              1.7506489413937767              3.4087185220721077
H              2.5008425836032924              4.1698018130213725              0.408830688171876
H              1.9973276571003586              4.296294007728265              0.9159383499623766
H              1.6624568939343838              1.7559856206536006              0.1523198898732711
H              1.1842271846104406              1.2466342088789086              0.5199595018576754
H              -1.3942739093731626              -0.006981262566601473              -2.2901761566524867
H              -0.5891418623062996              -0.09075604169891917              -2.471042442900169
H              4.284541676980726              1.867176095658927              0.6962485088906579
H              4.302888151083075              2.585543100174145              0.6612180406216679
H              3.4286331705647712              4.341127546686848              2.7059122563770788
H              4.022245319579861              4.792872187486314              2.800296466827678
H              2.2563164919038865              1.804024814483108              2.730531149815161
H              2.925494379710231              1.6654552914926781              3.0264797419814604
H              2.55775621194942              4.319308917552682              0.35222661863614474
H              2.036002133840216              4.537009604893797              0.8844405333954568
H              1.6053295551495783              1.749547239563679              0.14074270755148272
H              1.536871644917162              1.1712847057389972              0.6382665547755025
H              -0.9682792710577046              -0.08046112956002761              -2.2045077435765035
H              -0.4388759084615629              -0.022567416789018194              -2.5976103916057185
H              4.519094440327817              1.8902278659437597              0.6559943491978
H              4.523590174890048              2.631384529108053              0.7042394817519435
H              3.6736633401070797              4.048341020405293              2.7042759928718465
H              3.937051064326448              4.674785576369847              3.0621024197383675
H              2.2695602528677816              1.3939882608647216              2.54654000254758
H              2.5597431141366647              2.111201839855195              2.886117548058591
H              2.5064826816198384              4.247275737391802              0.17573226037534098
H              2.21504364808347              4.15267239594946              0.873324984899563
H              1.5915778925026873              1.7106882838717898              0.4302869687771351
H              1.7008958874810751              1.0617205388484847              0.7410405522988417
H              -0.9147361554094465              0.11238193142578483              -1.961044361371563
H              -0.18511417589862403              0.009997716752738063              -2.2674667636244155
H              4.512432080945509              1.8207651656775101              0.47110190502987787
H              4.671087773031037              2.5250816391684037              0.38520991112759834
H              4.078532966727048              4.046409663080444              2.637639070873067
H              4.021787921266442              4.469224440386254              3.2279595324331534
H              2.5207435552665336              1.4159743414558255              2.7506047834579554
H              2.601736496335782              1.9365631901755263              3.1567967163197297
H              2.4506720729139113              4.15219708485916              0.2408506000868767
H              2.212956769465176              4.208967143141882              0.9535620569017441
H              1.5859808839184142              1.812004864919595              0.29449319537934565
H              1.4898913435154955              1.4488503127000583              0.911947676734841
H              -1.1767121913067398              -0.047099075259970036              -2.01281593101779
H              -0.42663776170019496              -0.12033124061758811              -1.8036737066537136
H              4.462772650929113              1.702688828299203              0.39827416096128204
H              4.709328254120226              2.3896623513422144              0.3169832024755385
H              3.6787848417684277              3.9104111511780575              2.899842806406499
H              4.134302228766595              4.482101638147766              3.1333613356890684
H              2.228496731701756              1.553437451123564              2.9421425821269516
H              2.7623662253306542              1.9112680161667557              3.389616898149824
H              2.5714565413974317              4.319560310465131              0.23938995553275502
H              2.122698730759647              4.106294582044331              0.7980620399490338
