72

H              0.7117384575059132              0.7753422525198062              -0.4051986153494234
H              1.5218302069670098              0.7807283799062714              -0.5207979433013428
H              -1.3131636547720371              -1.6212079540874922              -2.4551574330355517
H              -1.4639845165755667              -1.9609001536760309              -1.8595465909385933
H              3.8006684375500606              1.268255338099196              0.9126073349114942
H              4.080164765045236              1.8779498120300027              0.6653618052612644
H              3.9792161455665704              4.398437738219665              2.336113070212786
H              4.076839742461023              4.245441666319623              3.0050224808044086
H              1.7681165434691561              2.19688186510677              3.1398168794100783
H              1.641254877826149              2.014945768948964              2.3812981632400616
H              2.4933177959801442              4.085540656746678              0.24504032541417345
H              1.956429263160124              4.343129315034673              0.6450985220226211
H              0.8010317882532417              0.7539088372761187              -0.4216275079643504
H              1.6053714528058938              0.7012504702052231              -0.5347579325931439
H              -1.2988869281656108              -1.657524484063147              -2.3267224140767895
H              -1.6604711035167892              -2.0781910151234513              -1.677054200362256
H              3.7647255174703735              1.2470944327924582              0.7884880903344627
H              4.0023481090915425              1.8733341491864393              1.234030928919834
H              4.018582603206253              3.8955501411640503              2.5051812101446806
H              3.931068849657061              4.011004525380923              3.2282953591158767
H              1.2614469719827544              2.19015272639732              2.9115015585976396
H              1.7587949198388186              2.0098093736151097              2.3953209775052806
H              2.567872160222098              4.264505462688899              0.37356222066505024
H              2.019169019482763              4.037567078789921              0.7926547000480334
H              0.9104498136599258              0.715615636062107              -0.34941774998159886
H              1.5090295147046409              1.1618883587673643              -0.14702088290690649
H              -1.352602193073585              -1.8214317864403158              -2.200359009311651
H              -1.562818366249429              -1.9726685134405721              -1.4697845152612186
H              3.6169942656183856              1.2506125135513517              1.1734525810578316
H              4.134765000181756              1.7063115805719533              1.1556538249824635
H              4.00690259485933              4.042421758328355              2.3679034184818364
H              4.0142323811530645              3.857009617606575              3.036448126410658
H              1.3174915006022945              2.089391388351062              2.7625834706574803
H              1.9183724753693812              2.041780777996035              2.257094969005271
H              2.3924766596187275              4.370592792085665              0.6860282441079718
H              1.8347045650767897              3.9193497231679055              0.7043500322027827
H              0.9624878167960048              1.0785510476853333              -0.5471346751904069
H              1.5943851441317922              1.345778161606622              -0.2733450780345379
H              -1.6047257918701952              -1.713891029934753              -2.1547424551757657
H              -2.062467527374656              -1.8886600290944457              -1.620318659221381
H              3.253829668582767              1.2626858711269424              1.0578591834011337
H              3.916527958799829              1.6490488253555877              1.0180025345667494
H              3.8364093850409664              4.332496403363119              2.428320359075354
H              4.001993097743837              3.9028785094532616              2.980339756805319
H              1.4980810124270387              2.172413074494025              2.6112643453037374
H              2.1254926779995698              2.0496804541555536              2.412128430316937
H              2.444162735679654              3.91577090899015              0.576556909787398
H              1.7072724031679136              4.003197105512028              0.46722462371434176
H              0.910034598732078              1.1620266463559243              -0.6627602698695133
H              1.6030176941832772              0.9305776146638182              -0.5977328177771553
H              -1.6704662126723784              -1.9836927868568814              -2.5024020962933915
H              -2.0770530565130514              -1.891448852485695              -1.882677046938127
H              3.8037600351495584              1.1177373175877159              0.9539936589302549
H              4.286891006310392              1.551744727871975              1.1948985172967022
H              3.6843194734363047              4.5293212924623605              2.4823783129307806
H              3.673495587691165              4.027872909820072              3.0671625307268346
H              1.325396135348432              1.8439325428182154              2.627581907403409
H              1.7507491287495858              2.3857436748754908              2.302302546033009
H              2.4418252116170667              4.130932879189735              0.21137221056020727
H              1.7004778416560327              4.167053840272209              0.48386664342940616
H              0.7048453200305719              0.8577481408343894              -0.5034717887721235
H              1.4699240816118928              0.9153965406121385              -0.6113768106977315
H              -1.4399112956774354              -1.6931140271484784              -2.6711828661021673
H              -1.6299992400201648              -1.9969234024281908              -2.0193323988043503
H              3.9006913993087333              0.934945455657637              0.9962003656390824
H              4.200134778237724              1.647806803144862              1.0210780049021975
H              3.8954129777173043              4.3899698522157085              2.503788294253219
H              3.5571025427421437              4.368109827640895              3.127181541607503
H              1.3780948397753572              2.0830443065400006              3.1515922610074565
H              1.614019913296343              2.168185386009936              2.3272592660998503
H              2.1788330734744714              3.8915050340552955              -0.09571896199460325
H              1.794422351867009              4.019179527509997              0.5403694774277336
