72

H              2.1634170643249613              1.4036868549311463              1.1409670965373142
H              1.5820353615384173              1.7922824631929684              0.7714629857878538
H              0.4218891465346978              -0.5527330925238935              -1.5241765715282203
H              0.16270977315775978              0.11237262576183868              -1.8961473887145779
H              5.503425027890308              2.380116171981276              1.3396506579685377
H              5.202731707353763              1.967718542817035              0.7713850746140172
H              4.1215845152275685              4.720821643718119              3.2729957975395036
H              4.161146092420155              4.1540006767241175              2.7559115413533375
H              3.2345971781107856              1.3871927367794246              3.2202924822007035
H              3.180266664088905              2.1744313241413553              3.1819417238907652
H              3.079713439691068              4.20182064360088              0.3701142154773247
H              2.8885671867405893              4.759375322299206              0.8192048603216558
H              2.257917720377373              1.5546943926401413              0.6213609768911531
H              1.7177557320895305              2.027289270187226              0.8897849352510904
H              0.25529091373019              -0.6828546871392656              -1.9331648186027095
H              -0.0037804357774548518              -0.06422065664782568              -2.0924635623408827
H              5.570266962310116              2.5203960180235847              1.320661586940846
H              5.188670295847229              1.8853945355428436              1.214132322128551
H              3.7747280611694283              4.859318895945049              3.0686726490388265
H              4.231129022770523              4.392302908413616              2.758615681948791
H              3.1814767411867595              1.4626267563153452              3.0898108744807273
H              3.306907869780301              2.1778228309041006              3.1226489604069654
H              3.0799302194689173              4.360588924517427              0.7073012737709817
H              2.7906692134798625              4.785267057643755              0.24252328199531414
H              2.4399153548802635              1.5816268861273444              0.45761596826337103
H              1.7663621793232236              1.4919008761000876              0.7509965762640666
H              0.44708725662197474              -0.6023765675551846              -2.281619074902153
H              0.21322826324149444              0.17857890180669753              -2.2713776645670207
H              5.574720610167459              2.573299850607895              1.3617399341769845
H              4.932433962348884              2.0950127111006043              1.2074487669378338
H              3.8828835836712363              4.933989279033823              2.97858442154505
H              4.090067517303024              4.334018156748202              2.714046028359311
H              3.116970175374184              1.2665049542869442              3.040913438911517
H              3.402836830981878              1.9053050984008453              3.1880144995891246
H              2.963074416418835              4.076436286767125              0.6745546675995042
H              2.6766152394261535              4.6447938507479645              0.39896047415316194
H              2.2163406719773113              1.7099331960978883              0.8767974437637895
H              1.5647441214128728              1.81940762616887              0.6527068656168222
H              0.6248868480017107              -0.5178580312497666              -1.8567965845771377
H              0.7032000476107656              0.28643216917868713              -2.220217363944441
H              5.6802687241826515              2.4601209170044913              1.3232787848626038
H              5.14696786610012              2.3384964506326034              0.7049614787283549
H              4.26347022824654              4.614551204843              3.0437219191896503
H              4.1199668224835015              4.212426958479933              2.48281145938426
H              3.6140686284448407              1.20146368022772              3.3917288595157156
H              3.2219552341811446              1.7897469531142807              3.247874178152928
H              2.9182166916469248              4.080430278941448              0.6683921810007156
H              2.812701536796382              4.766451278443544              0.8867927746234789
H              2.122154289826825              1.3857605833157176              0.7264801469245729
H              1.5475666286990162              1.8123578644888614              0.9962858797829196
H              0.37044468127806734              -0.39035370490920884              -1.7015274935007911
H              0.6856630865591152              0.1258392039381472              -2.0697223310249515
H              5.481383605826084              2.3848052327887976              1.5037069395160738
H              4.898172793866627              2.343945008848042              1.045334671412071
H              4.342162702990895              4.513630808456106              3.149663924427432
H              4.0431979892998635              3.9324079674420167              2.885864763965613
H              3.475668120561326              1.4920312037833012              3.4980474673426034
H              3.458903694998325              1.9545275022213846              2.9590927747123263
H              3.2244190828068926              3.9679056715511956              0.3798981703627119
H              2.8760324781462434              4.533098878574392              0.6389623163980586
H              2.1301331175410687              1.4073206358081103              0.8964987185067997
H              1.740125375718017              2.0032643686647886              0.9670585974870697
H              0.3492057431840942              -0.5583760851135329              -1.713822104031851
H              0.4000129087632694              0.08516315822434309              -2.061535871509922
H              5.442451048278243              2.6708928852619227              1.3914562672376465
H              5.116340983515135              1.9640569057427608              1.2489899981133827
H              4.200121865852465              4.655195829425721              3.0814839590574845
H              4.33233590979324              4.003327342399008              2.794250730340458
H              3.154879336084765              1.2570430413439753              3.390709703272091
H              3.3432579916419662              1.7877517336471263              3.058778606123081
H              3.387637008360187              3.9949687470389064              0.4763856849754078
H              2.985327661912709              4.572813466632968              0.7218440644909561
