72

H              1.6996914017599936              1.511690791085658              -0.325719954818356
H              1.2130432512513771              1.115850240248698              0.1371662446077295
H              -1.4956764363522728              -0.4288325984935012              -2.5096517739518456
H              -0.8959700327576287              -0.6992461363584688              -2.307006477022858
H              4.5185598582793585              1.6699795143597347              0.6345322636440636
H              4.671109759636637              2.3975771468207094              0.634221752652763
H              3.6532160501330146              4.371087884514755              3.178886642849973
H              3.841424096632633              4.588209175691231              2.5141877584288577
H              2.1011415165993896              2.0941504021098574              2.360114391755761
H              1.9524101603135195              2.123782300204305              3.102436593719495
H              2.2322911993247536              3.7269504661076724              0.4563421149499548
H              1.5820365951087942              4.075875618613962              0.6253986288608643
H              1.5442208094700842              1.8672648510716237              -0.359623642981199
H              1.325949170971753              1.2643587950000892              -0.06309093048545998
H              -1.5311877712207025              -0.4411914714180159              -2.3082138123422586
H              -0.8307219681624421              -0.7171481934791628              -2.1413113321540167
H              3.99028119556661              1.7486083234558818              0.606310611472097
H              4.4030531174824326              2.371246716800314              0.7386952946388501
H              3.698090571583487              3.9655495219628905              3.002803782725777
H              4.056815041531521              4.489149930371347              2.63707807937673
H              1.7815041704017913              1.7585357834756847              2.561598049334246
H              2.0275550823647777              2.11888503847645              3.2332935192550103
H              2.003036335588774              4.04089683251508              0.4592346070710535
H              1.4245263418874612              3.999450938986941              0.9235659873008669
H              1.6728395899276558              1.3468480961274043              -0.3143399062875254
H              1.475261208852009              1.2418467592302942              0.4546029401887126
H              -1.6297496216454106              -0.25131627612114266              -2.056195263415947
H              -0.9529826165243467              -0.7108552025207526              -1.9849110348271766
H              3.9938971286020326              1.749817660584022              0.7453747739158917
H              4.239245369363996              2.3779795955387644              1.0952221917561682
H              3.779300073716336              3.926928088579903              2.8977982843205714
H              4.136658278980705              4.461946284075168              2.5086021352677252
H              1.773864675947436              1.8067374599676815              2.4989667617320666
H              2.1120313303313134              1.7705438421292383              3.2472409652864958
H              1.8806792086627275              3.893021486962923              0.5157272779573128
H              1.6550762646927402              4.2341014164953              1.1706178681299386
H              1.6301916547311852              1.461643452026136              -0.2207203340261307
H              1.4407399314370448              1.0940808919259097              0.4239609378730516
H              -1.7174174093729757              -0.3469171768357781              -2.271051567427158
H              -1.1275783249995812              -0.40469923048055695              -1.9694246863423324
H              4.193988645359098              1.6827886666422849              0.5775954125184082
H              4.562008241640876              2.333665277798459              0.6185989441141551
H              3.5029001976195975              4.152156089428887              2.945685952404161
H              4.0315621752332245              4.356336653993253              2.464125344511831
H              1.8988378345309176              1.97078468067248              2.2920809097446044
H              1.9172701027806618              1.7105153382532319              3.0831803316688444
H              1.935644942471633              3.8550894198731838              0.35471634383727724
H              1.6995734723504672              4.3638259739293375              0.8623531494296006
H              1.9036985978720131              1.361751627957              0.09499325639480287
H              1.2572463250223083              1.0042981314646493              0.1960917441494581
H              -1.550588835105933              -0.36205399441826297              -2.493581616239278
H              -0.9304969078783255              -0.3678013975765206              -2.028527381640495
H              3.7876619956539614              1.8437351009339131              0.689016132296061
H              4.471149681686839              2.0757560829122155              0.6921009980571461
H              3.5644016123709488              4.030719913085369              3.158251989421026
H              3.9070587506140138              4.5127788380753575              2.7789852424684867
H              1.965813542376888              2.179009091422053              2.2861733331448906
H              2.1552356166317823              1.7559160068414423              2.8031269333886115
H              1.9138760559777053              3.882427368666939              0.13694551862601523
H              1.722031299314002              4.1462799706650495              0.7440265924941418
H              1.7135843838053657              1.3026764668835418              -0.18420029174375843
H              1.331089156561571              1.2193980125620532              0.3829179594710214
H              -1.3418810925264968              -0.5605079576994783              -2.3798090212125893
H              -0.6169589197991323              -0.4114548432054474              -2.064535626434319
H              4.291180581909707              1.6878810605756702              0.7642773645485484
H              4.622657503625248              2.3772018495327916              0.7349904293079431
H              3.6883579572356093              4.296506517707186              3.152570573266045
H              3.8840210116385663              4.569690792575637              2.505536730878406
H              1.6356311908555363              2.1157733101594673              2.581974611122951
H              2.2399519818019455              1.8473797767078752              2.8670997925971102
H              2.1497075352416037              3.8233971093519967              0.17054835575466806
H              1.7679778115357518              4.019676419284612              0.7939884427521254
