72

H              2.15957626704331              1.5961644903599344              1.137578445749474
H              1.926308218011772              2.2114608925353543              0.7428357663195533
H              -0.4341551295656191              -1.237382686041385              -1.6657012690750415
H              -1.1181151854766664              -1.34409153865215              -1.823293505261596
H              4.790991366419407              2.2827691786754705              1.2748432138257515
H              5.044402325613611              2.909692344150326              1.3860302091043661
H              4.542081661137891              5.011272647121397              2.3849188588654338
H              4.537877088925824              4.600004789221828              3.061931923014532
H              2.5770126152110193              1.9042040551847519              3.852650394221922
H              2.8737274058837423              2.4280739074242605              3.2917081840726388
H              3.0301935399142907              4.449713400186333              0.24080524055564412
H              2.813623227152829              3.900813822962426              0.6988582556263255
H              2.4690570160961376              1.3048471627806146              0.9572018711613619
H              1.8205172178042037              1.5874847439474213              0.86264496314404
H              -0.5513010367621821              -1.1116652717094513              -1.9872720406539288
H              -1.0326165659802495              -1.7067419680487175              -1.9837352728630462
H              4.974607069948431              2.1517112949469177              1.2455831990594939
H              5.142182415445022              2.9041381423912167              0.9414184763621882
H              4.318881772138543              5.0538980352818115              2.6061970529725347
H              4.047274640606222              4.509783098971268              2.9869591220495932
H              2.4287779258047246              2.000697498822644              4.013417467546908
H              2.6256308784699645              2.2568084337650975              3.224632832658692
H              2.787241683753783              4.134930727489255              -0.03445215478105328
H              2.733973497525525              3.915033793499111              0.6330088061018593
H              2.474692359862568              1.4154428306621603              1.0584409274193904
H              1.7935174521459196              1.753860522922887              0.8520733965461637
H              -0.20157522938151148              -1.0459581921802255              -1.939314101890462
H              -0.8016425440860849              -1.5176148960340263              -2.2702801224669837
H              4.939384645421129              2.302780511640435              1.4959363412554008
H              5.3364423452648255              2.835796223911745              1.1348561905542283
H              4.234666902828481              5.0286394402217445              2.4444359761405043
H              4.243567668903382              4.530598169271264              3.0296434769018314
H              2.2735394397845337              2.1169655115757657              3.75783311657272
H              3.0038821203219768              2.2589440125656166              3.436840978709307
H              2.5624904037338747              4.314509453844813              0.4821615104638469
H              2.867202926417134              3.637856031339058              0.43467412745098843
H              2.438247392191995              1.318240654335987              1.1186301136439676
H              1.8589679091949918              1.767941363987051              1.068859932264006
H              -0.08681775451708461              -0.9420181340251769              -1.8177209220280242
H              -0.7795594148217296              -1.2919717890189948              -2.1325460712060753
H              4.5273935669074294              2.2345417567313315              0.9768115638331905
H              4.896630420698446              2.842397167236539              1.1527544429434198
H              4.103303412803837              4.735110769778298              2.532515599014913
H              4.470736990304748              4.7336228576275445              3.1119026653606285
H              2.772929778597449              2.1913499902671476              3.557713486237115
H              3.3750529043611284              2.0038453738298947              3.139094065881421
H              2.823046394975901              4.501189737315586              0.4565968823431693
H              2.613052926172301              3.772910080927444              0.26089744498076956
H              2.329225914038473              1.8680571759743074              0.8683845245437096
H              1.7447682876920423              2.0723552411347086              1.2475371280112657
H              -0.06279488243543517              -1.206429110066073              -1.848151559505389
H              -0.7174714794442669              -1.146670768331607              -2.0634150037129304
H              4.571012184356823              2.038333101248519              1.1113412268195038
H              5.053678849578433              2.4989238652272348              1.2713064606772033
H              4.041308498118824              4.961076463540659              2.705461804975582
H              4.407656165555313              4.45161230518721              3.030670280291173
H              2.8518233972548894              1.7985979083750367              3.6096852146059755
H              3.20192965866982              1.51078849947285              2.908416096226248
H              3.0196018021168696              4.4942109071625875              0.42027643079050053
H              2.9090379900072              3.7878936998971406              0.44796507660858953
H              2.1131451665661545              1.6169763751769364              1.0046986386675847
H              2.048310416618023              2.3676458921616494              0.8703885835887186
H              -0.023283942759282403              -1.2392953317433781              -1.602619921673113
H              -0.6370984396607499              -1.3657275402032245              -1.8696411659379801
H              4.9297738226405965              2.00456644573039              1.6440566923336493
H              4.896942081798287              2.689791963253043              1.208451376047012
H              4.5445936518067445              4.769126307569752              2.5787446481828793
H              4.440709309533594              4.347291176218534              3.2475936099524567
H              2.571379478817523              2.3865173076607915              3.6287490305230605
H              2.9449654136603276              1.7955089670548245              3.2597721765589864
H              3.2055591022460064              4.481842497403044              0.33326632671469847
H              2.9858136622776037              3.8262180966814925              0.3357842599128222
