72

H              2.379399323656076              1.1739726739051226              0.9876087844055463
H              1.997233873609487              1.7181014985572347              0.7344888427415686
H              -0.29818046377598756              -1.1416679199519277              -1.9061020898742664
H              -0.5267033967879575              -1.7575972880638004              -2.390611176479211
H              4.878362407447509              2.3489482106387474              1.5420189584371051
H              5.176747485293651              2.605259097723619              0.9171953292939602
H              4.1455185931062415              4.828438433781387              2.7906262067368264
H              4.228444474285367              4.106389009655042              2.9977287552784317
H              2.8317717893926857              2.1146374935844863              3.5539916435824086
H              3.104134269726169              1.761314617688548              3.0065332606250044
H              3.062987948180117              4.504841732542254              0.1461077621568989
H              2.648797711859879              3.955589664076746              0.43955653776854897
H              2.04630476076479              1.4374296349666533              1.019836437699238
H              2.146524451860016              2.1545555653080624              0.8616352012729896
H              -0.4511191273360615              -1.4088512060693443              -1.6579217380007742
H              -0.7850172819158664              -1.3893059354622679              -2.305570790687169
H              4.781052719116301              2.1871090212491864              1.5006038640567532
H              5.144217556842898              2.853012843112958              1.2680958531781963
H              4.4431511367338805              4.670406999322164              2.5491436664119376
H              4.647071367253537              4.30078180014963              3.183322976424612
H              2.788884484614205              1.9454572124155651              3.724621178868886
H              3.216479482917449              1.8972898965506606              3.1412801277628613
H              2.9473484638312075              4.681754779894376              0.46073165695082335
H              2.8972978701305165              3.936624351514711              0.31515038569472864
H              2.3124758935215817              1.3638694240735731              0.7761666852520731
H              1.913028870422934              1.841540042351309              1.1676719105711995
H              -0.6202739302598345              -1.2758383621971903              -1.6692228512780805
H              -1.2614707015394577              -1.4250913897655417              -2.088147196460698
H              4.770882803220476              2.106947806276472              1.162412398525501
H              4.9685123564610745              2.8397048718769216              1.1478735128478685
H              4.658036021190261              4.767351813277846              2.6114633651628454
H              4.519789453582616              4.319511127117617              3.190797280331826
H              2.939833579056469              1.653993339352046              3.821685005507548
H              2.8853903380406813              1.9349487027691832              3.082897740450209
H              3.0647814980865506              4.597291338292439              0.24674305083597903
H              2.7588414312598437              3.9482428688673306              0.4048443369635377
H              2.1640794539664046              1.5605008896647452              0.6577690424233094
H              1.722323393174877              1.893122770603516              1.1562167586439729
H              -0.578056518866771              -1.1835932130572946              -1.6457285682717981
H              -1.2716137987534695              -1.3690455011922225              -2.0503471306407235
H              4.916124694536371              2.265928835682711              1.5401483705786727
H              5.255201741294803              2.645715563545678              0.9423794469954839
H              4.614579192980074              4.986687714548745              2.7428193136920114
H              4.397804124766055              4.301263715155035              2.9327735943440647
H              2.650724504374776              1.696583516878537              3.8395204348786316
H              2.70510167863763              2.2406809884665764              3.2693403137435726
H              3.0499600822785036              4.608230921488596              0.5415028525005984
H              2.99939055759209              3.794865495712844              0.44137895398117133
H              2.255217398547203              1.2355665847226003              0.9284875265643417
H              1.7546620334853464              1.6974690196498983              0.7018770516657925
H              -0.7288642583392589              -0.971848184715431              -1.7047299328737877
H              -1.080237146590284              -1.4536376346582027              -2.0145083655026466
H              4.977352377962055              2.385505703411523              1.5060847565737623
H              4.967914824376092              2.8030943055894637              0.9108783967533981
H              4.475272735789439              4.934644057661771              2.440919025381417
H              4.381591290230695              4.446955395961647              3.047322633097976
H              2.732336684660224              2.13724875922736              3.973578924819021
H              2.9329259493689412              2.580000764987298              3.376542537237542
H              3.1041901679942985              4.527701028165575              0.5034721847983223
H              2.741209983991102              3.9891698525715444              0.21013907740699683
H              2.438827288450301              1.3446867935710103              0.8917016817751321
H              1.7403660674493837              1.496460798724891              0.7271451234331222
H              -0.6219603690976666              -0.9562473674444731              -2.018629103692767
H              -1.0566567508348605              -1.507712637424527              -2.2966174732473617
H              4.70168036532717              2.3396002678117114              1.337086197539201
H              5.274031162107689              2.7851491374778155              1.1173449172902747
H              4.056464488967814              5.140486631405766              2.5954936097102603
H              4.303470832279531              4.466056757258553              2.6688601052169765
H              2.9170310997655937              1.683205454396044              3.704787777589272
H              3.1726043612537254              2.1328072505796896              3.1213294464112487
H              3.011732208927233              4.4186792718659085              0.27664770167453623
H              2.5210595322936835              3.981907902176123              0.5464590741626834
