72

H              2.586588645317695              1.6158335748540047              0.47357571180676167
H              1.9318896167720927              1.7861759153549521              0.7554978279489188
H              -0.2806591577013968              -0.48611526997562593              -2.1130309480914633
H              0.11224366563773981              0.15330040648901253              -2.278740797684782
H              4.950340003930841              2.263312339772784              1.4341043645158165
H              4.598081983586534              2.5318776112445764              0.7803896564543695
H              4.169864780848835              4.589777445740917              2.928726255038671
H              3.9127587923105875              4.21993684023304              3.4916826550350555
H              2.8515421276405584              1.815482788057511              3.2748486291728525
H              3.211715312215235              2.2226380388293965              2.8356808559317743
H              3.279711488706742              4.435343369523622              0.047668879300559935
H              2.644046940814628              4.2919976399696225              0.3716131413370098
H              2.380017359539087              1.8543841529507787              0.3928380431928403
H              1.9792792909583192              1.7700750625308448              0.970139655944851
H              -0.34007789236167346              -0.3141737237119044              -1.827602586233766
H              0.007861254685115194              0.11530959830311896              -2.4637997470052517
H              5.36322010394827              2.273949937864514              1.1241149438165123
H              4.909103032035989              2.4350466865465443              0.4651164684695722
H              4.307934128869078              4.888211484082157              2.9080371332578983
H              4.226881422987002              4.148629551554996              3.057493035805118
H              2.8128456179497583              1.8045214032032038              3.5097574109501632
H              3.2953021480658564              1.8227655986782982              2.8938457855270205
H              3.022318293656397              4.530582766106903              0.18154343525750372
H              2.513991664194964              4.565649553244562              0.7540274817046522
H              2.3983859283261966              1.8705429968808256              0.3219898943828212
H              1.9167362173993434              1.9927460777643455              0.9272598745692794
H              -0.4872146864542882              -0.1004571824382631              -1.7504006009291608
H              -0.15044647462873492              0.21471992861786987              -2.3260165557258636
H              5.049417409703726              2.050189446710989              0.8236791653061358
H              4.646616048712543              2.5468749409427898              0.3677092282170194
H              4.14333652555522              4.668354269363723              2.9705977179429315
H              4.100398649132714              3.9948262367429015              3.266583189281355
H              2.92755570641767              1.7104345686649833              3.475436345429562
H              3.478372755154325              1.9299730241910042              3.068565313641406
H              2.7234720058807373              4.4176111788449095              -0.005776486663925721
H              2.469635981023652              4.592205732851182              0.6818604529003572
H              2.328962455911206              1.8423339373334744              0.35840352039203255
H              1.8162064163021692              2.1490675263263905              0.8634820053605096
H              -0.2674322945455398              -0.05791358497445423              -1.8559596585785756
H              -0.045878645668781366              0.2620939984121485              -2.4273903076654557
H              4.946777977165753              2.239311642987052              1.291235199471932
H              4.533558327698364              2.3955562283737595              0.7382917607748885
H              4.316366675432075              4.57511143197093              3.016113247675727
H              3.8973742572638623              3.8877005798045463              3.064274692223802
H              3.2893792749839146              1.1719915578265874              3.2264801981979807
H              3.1886997435704356              1.8614437356101845              3.406147586211902
H              2.9062644465190557              4.262680502942967              0.15911409990721107
H              2.5446813694964248              4.743023682057842              0.5837402206600014
H              2.1520953629940247              2.022471621382573              0.40692829167485617
H              1.8682864711327691              1.722392995921939              1.0393054889386015
H              0.07178575618045718              -0.026644882783966168              -1.7649999428055705
H              0.21330043910499227              0.6062178520397458              -2.166341381651071
H              5.107278356063587              2.365050566405619              0.9655580949077872
H              4.36709295462247              2.4446405316487296              0.6017120116843389
H              4.353684909221638              4.608200079329282              3.029280472998543
H              3.9717105048939425              3.9521308465711904              2.929054751245926
H              3.283043021467602              1.294663106326762              3.3470292688816676
H              3.3199965929388364              2.022461090718275              3.200552388358817
H              2.9531794156763937              4.31945556436374              0.07937791067836353
H              2.844498753992504              4.423426540937837              0.8284841758922623
H              2.2211565434237555              1.9441289757160805              0.652838558815468
H              1.5207823384231214              1.9836523193232485              0.7755925871518423
H              -0.2618411565906951              -0.19842323203427742              -1.953465041016885
H              0.24791783209390597              0.3512015746934212              -2.0972037097083516
H              5.076113243509735              2.3430446874838435              1.1615284939382249
H              4.77300640858668              2.4456651394075806              0.4632346334953523
H              4.2324453291107185              4.649153155117903              2.8605259462696107
H              4.030813685135428              4.169045464334506              3.404836540232234
H              3.2671901994494594              1.5046862054155663              3.119942221969269
H              3.4355647426652585              2.3159775202177233              3.1151991001070676
H              3.129416779062842              4.495972550030452              0.010885770332221295
H              2.8766077574600537              4.553439497279067              0.7014600717518991
