72

H              2.1447652273745126              1.376535380876125              0.8669709888268151
H              1.6487238258404664              1.8769563583751627              0.8977273397905372
H              0.6404406984528562              -1.1754839507342822              -1.9504081184604334
H              -0.08318090284729927              -1.2413725291274031              -1.8528189886476598
H              5.043354248801433              2.1206686646213893              0.7823990475845913
H              5.238097944826244              2.4885536570656073              1.4534565900559338
H              3.6090531505198493              4.704225487831209              2.6893771021754382
H              4.295972973327687              4.647980045009137              2.8798546873943844
H              2.5966748535326407              2.4904110009351488              3.5066915798481864
H              2.8500732125032435              2.0078437101313824              3.9093938161138104
H              2.854278448197746              4.514839853891163              0.5581110749252693
H              2.8283821137261005              3.8899289731776863              0.2281090557812355
H              2.29497858742544              1.377792097741085              1.0998151861069136
H              1.631398307888194              1.6689031738149716              0.7506451509600734
H              0.4080412529225244              -1.2524353159421842              -1.756528222034011
H              -0.36439994659270164              -1.3734147374094843              -1.8915693194324246
H              4.963209887573755              2.1911638614039552              0.8044609586933822
H              5.036692558145705              2.7519519434088613              1.3782626878823936
H              4.067863180942305              4.399116800087764              2.497966996252088
H              4.18338162201225              4.713556809830576              3.19037212894223
H              2.4853884315005517              2.5915420301134664              3.679049836753429
H              2.8319275567853017              2.1303599891947322              4.211373763952246
H              2.7064765958032417              4.451366872276405              0.30248020388757396
H              3.0256687480123543              3.8078066045179306              0.2808630971621065
H              2.2105787880027              1.3249866987503875              1.1969686028083808
H              1.5198708826245508              1.2917298978703506              1.0134845316226186
H              0.076189147839508              -1.25147328984899              -1.9937925916515187
H              -0.47781651747193987              -0.9343508138435372              -1.7733001791757097
H              4.827380752825481              2.3647401749925008              0.6798392747226298
H              5.16292246841401              2.3409048901881304              1.3195371590011118
H              4.013641202005002              4.618422211615522              2.4870319158992267
H              4.115705182013574              4.805492631171873              3.196977236304587
H              2.2926183202507504              2.05722996543191              3.675385549707661
H              3.0236624968294246              2.018440425195379              4.046270991129281
H              2.6493510463625105              4.440465697145988              0.4163778476067342
H              3.0131036887161886              3.8029364287434415              0.4822701974746841
H              2.2244618219285486              1.4575216274351237              1.1822827812724928
H              1.4768877509372513              1.5239244697458034              1.1744577335833721
H              0.22694860075428785              -1.1334800230274453              -1.8537464348332933
H              -0.24674751949019189              -0.8171596624128805              -1.480996991687991
H              4.680718758819452              2.0206623578805285              0.5603766462387165
H              5.154485676590032              2.3792136170763283              1.0366476004720429
H              3.8121702962541075              4.468111404680172              2.623825561137918
H              4.1734056340944585              4.815272130713972              3.2214488206557004
H              2.294711727175304              2.35255833340852              3.6958853706733095
H              3.0846674829950076              2.2902795341639255              3.7041044090174235
H              2.886498598557104              4.502576508586045              0.3450636559749924
H              2.8758130428881654              3.898364710160903              0.6702411800625466
H              2.1471382997549013              1.8789811346935945              1.086102148065093
H              1.4849280098593536              1.5434088801960661              0.9894035995589067
H              0.2271045899113305              -1.0374232613132754              -1.899069275540166
H              -0.44992602625282163              -0.7253802084982812              -1.5425666951017092
H              4.616029881120348              1.9784179655493248              0.798132479362369
H              4.968924310133038              2.312019599881545              1.3831100123015747
H              3.6965648429818665              4.805313870244605              2.480721996264282
H              4.153818630780908              4.871777413625543              3.1069421739895757
H              2.6523514872752503              2.6994281779371065              3.6829262530721296
H              3.1114249048570124              2.042034722871059              3.6562251969111017
H              2.6587529086787294              4.3363505212320685              0.3054383652113772
H              3.2896552867407256              4.014923411804012              0.5869433072908583
H              2.174030486599522              1.491022954824714              1.2505375830953724
H              1.9350997129853336              1.593563897935582              0.615139183868747
H              0.4069928299818579              -0.9908617185225306              -2.2072595694557204
H              -0.2469456221110282              -1.066957811844578              -1.657252168672921
H              4.81849256203935              1.939851096706712              0.8202766632667606
H              4.7863311570381395              2.5417582457825185              1.4195847230303154
H              3.6376371920086474              4.845464264121052              2.4383647304734923
H              4.069503409477411              4.804939852987992              3.0178960327463464
H              3.0300336380598276              2.6048985376772853              3.6322951808276556
H              2.7440897791851624              1.8215469745476476              3.53245921735452
H              2.7615269024396185              4.584653759604135              0.30442244089451703
H              3.0848484637097076              3.8891709133432673              0.2832969127961174
