72

H              2.4763074873299606              1.6013226579984763              0.7823121520447128
H              1.7837770397150985              1.324833243010374              0.9282203177663193
H              0.7125537193318664              -1.1444479317005891              -2.1743441387658056
H              0.4964184161395              -0.45277555810852177              -1.7858529637399092
H              4.59808331722962              2.259352677908988              0.9157452927190488
H              4.928319073101979              1.8254832531483318              1.3986961604246415
H              3.4617651498879125              4.55104716958324              2.7277026677324123
H              4.1583125789095385              4.384995196902284              2.9685666694082777
H              2.8854263587285542              1.8511091297477302              3.4080222481795155
H              3.1037057952992453              2.1012167189730984              4.111392616086422
H              2.6139745833017085              4.024768424076924              0.7081885291720998
H              2.8056678666768344              4.2407597985761125              -0.002497887971223643
H              2.3540662785218447              1.61964347103658              1.2073090810460192
H              1.6521493588431997              1.4205661498356879              0.8308890521004884
H              0.9268771335875862              -1.0084808838572032              -1.8085420576239613
H              0.580348818811938              -0.4519135602321921              -1.5526744456197425
H              4.7698799241674              2.258338766690335              0.7664074575061138
H              4.757772558989444              2.0150805644809826              1.4996886673560397
H              3.8400897692723492              4.311128805312374              2.940038273404929
H              4.499793146732638              4.676394038860372              2.9606797108967915
H              3.390264804966685              2.043539420386564              3.3602842913671425
H              2.8714532300106406              2.2418001874312847              3.965216068174453
H              2.766861089221682              4.295164487806911              0.6489769998042129
H              3.036418679517121              4.336479591553096              -0.035948753373490905
H              1.981251124267762              1.411516247906329              1.2596135232494778
H              1.5899319035715942              1.732188722959551              0.6890411591043315
H              0.5671157937854869              -1.1332315027589839              -1.7238738614108582
H              0.2746941210129419              -0.49259739707184674              -1.5335866161100657
H              4.601747280810502              2.5014896171665653              0.7947183927439956
H              4.837338501818579              1.8267703143914429              1.177201333222333
H              3.722611179613461              4.59001534652268              3.0762137989018905
H              4.41494330634886              4.735338639280333              3.0369634685797795
H              3.3567548423198676              2.202197553455616              3.5738654186360304
H              2.798386621457602              1.8394857839649283              3.8993062074577347
H              2.895383925758762              4.309192665320591              0.7070356788947756
H              3.2422017752306074              4.191194355582741              0.04983951362569013
H              2.277974115933695              1.1791671929144008              0.8287531102896678
H              1.9339728729551546              1.8001059414058695              0.8411161298285845
H              0.7282806675982387              -1.163876091683513              -1.8637196409403718
H              0.08811402584308892              -0.9746185211036906              -1.631515102360691
H              4.659273547532246              2.1452232536255305              0.7915092767681071
H              4.907037030529106              2.2948854870018525              1.5244999867607425
H              3.67603382627125              4.54523136639991              2.7928329066262294
H              4.28643097800192              4.732357691257156              3.181573102204759
H              2.7651313156620465              2.3985542185925746              3.633470234540956
H              2.5564884689250458              1.9495725048108652              4.1349712945399615
H              3.0560956315592325              4.2101185698001125              0.7575389898863173
H              3.202926173424542              3.9024124741522064              0.01883529334031459
H              2.5244911430399997              1.4992422965884797              1.061878819499652
H              1.859337867397517              1.3220704435455022              0.7112155952624073
H              0.6616491723015643              -1.0119351271652022              -1.8307257890238373
H              -0.061129174078761145              -0.9003658509663028              -1.7910630233144214
H              4.794588709664451              2.482609883599039              0.8103920343560651
H              5.047815011325177              2.228564897732587              1.4408884289132378
H              3.8130594420192367              4.470115786883143              2.6390089357612285
H              4.270663893916673              4.936709472808511              3.027534949409443
H              2.602497083113276              2.547297198807063              3.37210271718389
H              2.9473855284270396              2.4367514071459695              4.0524294380894945
H              2.5502108482637977              4.018452714867159              0.7917129812323134
H              3.1107238431909257              4.05767600693065              0.2827055891255146
H              2.630518671057791              1.552651706989772              1.0585483519778855
H              2.047692852909288              1.3973398910736932              0.667180935834044
H              0.5264288446528144              -1.0496335399777244              -2.128249424883237
H              0.026352625160724542              -0.7255629632373742              -1.6981191214463625
H              4.440798676341809              2.4848308653103377              0.5365637826267597
H              4.824696946897716              2.1301942155418887              1.022187637527601
H              3.5595194072757343              4.327171325409586              2.652777405252176
H              4.007873609350896              4.752391265774734              2.9589564317760715
H              3.022099286269876              2.54553591330847              3.347387129303806
H              2.981025246928135              2.1493797992715513              4.003523359806949
H              2.3869952888842385              4.099241895633417              0.7279251036571908
H              2.8847165845453624              4.0222828430993705              0.11810852372615209
