72

H              1.0404720291266092              0.7350706157640302              -0.5826154508876397
H              1.6658226768195434              0.6872107541139227              -0.08776863651365982
H              -1.0101098946654397              -2.1599903135477923              -2.2264700890757103
H              -1.7143605509528066              -2.363824084532581              -1.919306161443798
H              4.167574280058688              0.8391201296239007              1.3257098032154042
H              4.502445482547615              1.422215075610553              1.0466747935542788
H              3.9773770337053773              3.6974270396441584              2.8247656246312243
H              4.205507072137134              4.25942586158905              3.2298501502537227
H              1.2647604446914134              2.0664011812561855              2.8696568692734137
H              1.5752876478714273              2.4200748279802786              2.2780546628335734
H              2.599089287295829              4.301229698842411              -0.04141769550788563
H              2.063373543516863              3.9293292379356424              0.30869569632403704
H              0.797956738089821              0.8092845688332071              -0.45556019866794867
H              1.4455213850152935              0.8401227390400017              -0.037193960662072215
H              -0.9196535108547129              -2.222216123051755              -2.0055390924797645
H              -1.61852347389266              -2.115413706638053              -1.8839841988770478
H              4.029511787974216              0.9443219924344449              1.2470171125984815
H              4.136768085143744              1.623645913176717              1.0343280127611831
H              3.874874598420744              3.608362825669641              2.9787729440039423
H              4.24523302563712              4.248416366569274              2.9123312127694483
H              1.3635417457891328              2.160057563525179              3.0364033297361606
H              1.785729661186307              2.1961186582086714              2.2282273829109385
H              2.88780218441817              3.9079485416578805              -0.025035865414687917
H              2.123545242777616              3.6836132803066843              0.046510641732400146
H              0.8472944250314672              0.6228421295645652              -0.26910730737392363
H              1.4848796735711551              0.9992042653601573              -0.4750142082091127
H              -1.1231974111422098              -2.5426994065596626              -2.1831813847691577
H              -1.7358172997434034              -2.2154614683890443              -1.9499722863689142
H              3.6188195499193085              1.262734799876697              1.3056278404550055
H              4.251252055241805              1.372733349331116              1.0367546453776126
H              3.566794788110359              3.772519057782043              2.7614975109456474
H              4.247647211417266              3.961456937521156              3.061941224352454
H              2.001076653337283              2.0366986090371255              2.594064588224436
H              1.5778693326550868              2.306544559043598              2.1366106317383546
H              2.889390337525095              3.8977875423352013              -0.03791625179382853
H              2.2620783615589617              3.93763448779454              0.375064891776186
H              0.5822576073197959              1.0164259699176912              -0.3082955798253649
H              1.3034105017745172              0.9648799874426072              -0.45259240893023256
H              -1.1268023752751966              -2.35604893935873              -2.230096680317731
H              -1.794058391073668              -2.6938065922235137              -1.929981886354144
H              3.609023401698941              0.8260124782185099              1.3187797240033128
H              4.226742408361821              1.2695423005502067              1.4451046672875598
H              3.55742181993029              3.673347668690374              2.794708383426263
H              3.985058356440911              4.081589735155334              3.2374638794594155
H              1.666036052262564              2.060363213810662              2.8496482368004945
H              1.253388207377706              2.201590792270698              2.2435330944822494
H              2.506990410034328              3.8499488802824122              -0.0024573014033542574
H              1.9159229782846314              3.7620426371053672              0.3795402327526626
H              0.6346409212014242              1.0833483527469085              -0.37834333324306707
H              1.414191012629124              0.8163070565802161              -0.4325200770131993
H              -1.4613322164271367              -2.2843407401071008              -2.331474047845002
H              -1.8813222045189224              -2.7680576270550326              -2.0316633708769327
H              3.7304568000418223              0.9413578272677203              1.4522427852006992
H              4.317596417798982              1.1690236574146247              1.1019702155792355
H              3.5501873209592083              4.203080864656415              2.794346569240433
H              4.308079156916348              4.309707816932986              2.960723319102689
H              1.8909359366577612              2.0271468413157248              2.806362044948144
H              1.5738825838642394              2.2728769755608496              2.221556267783036
H              2.4744232885511326              4.013933392371932              0.38994575991260133
H              1.7779530557478378              3.997834889391149              0.12498427630220202
H              0.7156909790170436              1.0145938466093782              -0.7690650598835762
H              1.36601523582327              0.9712789196703919              -0.3707389904299557
H              -1.4783876377711789              -2.1384197543681234              -2.3893765411489563
H              -2.06166086581673              -2.502886665884716              -2.0677936084154154
H              3.818798580664494              0.8507241739205504              1.0656670140121185
H              4.310056440264613              1.3548600182798776              0.8939558155150206
H              3.601972303925755              4.027148379280579              2.897288902343598
H              4.222314186174807              4.286666188695262              3.180081617721276
H              1.6353084743698205              1.9836190167701904              2.874048553983344
H              1.3782889601622372              2.4087057262957767              2.317952565992908
H              2.5155935925529875              4.217766410633835              -0.04514282752800126
H              1.8715313019532474              4.0220945788683915              0.2405133041922061
