72

H              0.7340072207521899              0.6669060897118342              -0.45541157421461653
H              1.3978864071380548              0.8621040237770746              -0.47635307725853643
H              -1.4006538368297705              -1.5356000425343175              -2.537236292392638
H              -1.5406006319515728              -1.8737843232778904              -1.8090979679603534
H              4.029867669432196              1.2000358181216224              0.7962662589572339
H              4.082836489337813              1.9742373086933849              0.673633574160286
H              3.9568554561304388              4.402320968886095              2.3102501492309173
H              4.036538704596126              4.2983134539776495              3.0980737999812344
H              1.7193691270359017              2.122693652806517              3.093120874855281
H              1.4803434776613733              2.0359592783624967              2.416597722638175
H              2.48469465274219              4.142416633528278              0.1511271576477409
H              1.9190650686172437              4.310102103085848              0.6396056866894914
H              0.8999364553158729              0.8148351215765113              -0.2584185582753363
H              1.5036853829357832              0.6811271689489405              -0.5531782343990033
H              -1.2570581696430898              -1.6442266340034684              -2.2906540858207673
H              -1.5413747911782765              -1.868323025019638              -1.7038767887779007
H              3.6948351772420955              1.316940046070633              0.7913793070098013
H              4.027293428076889              1.8905948184300942              1.1059446935593198
H              4.197376324381713              3.940557540857992              2.5330822245079587
H              3.8287650883771613              3.8804558709458328              3.2091484635084297
H              1.278380035047661              2.207584011942994              2.8338360664326254
H              1.8692939843233094              2.0875244970814695              2.3934995910393053
H              2.470845325232184              4.2010657346359705              0.23985055195639554
H              2.059950287368036              4.060046682153976              0.8559113030700898
H              1.0096558849226593              0.7782160122092117              -0.4373656340433409
H              1.4447024290082568              1.2596908242554874              -0.18104727451903335
H              -1.257065497758427              -1.777932632882177              -2.1039740716535884
H              -1.5011047640791482              -1.904850528052979              -1.437590177062086
H              3.641478952466977              1.2511336744159172              1.0765054666522296
H              4.160029091430192              1.8470092656209602              1.2534752880343696
H              4.030936918218641              3.9748687133781724              2.319433075504292
H              4.00667148640094              3.8897117627501006              3.0711145298394764
H              1.2662861648156143              2.220225101896974              2.7778752528495274
H              1.828698622300644              1.8901300073329783              2.4544444698926715
H              2.446120961196139              4.279825458770326              0.7063602783352692
H              1.8640620096667957              3.8230113272415713              0.5794987993172027
H              1.0824704717948415              0.9262760170622987              -0.6642157105559529
H              1.6131808380602595              1.2848206481278424              -0.27861296541512365
H              -1.673904735341417              -1.7605860575595553              -2.320554660375754
H              -2.0823464263404525              -1.9409962525404567              -1.660206665750139
H              3.390826245919719              1.2977999143856158              1.079588131110044
H              4.0403200203811585              1.5847556453208644              0.9668551148327992
H              3.7108208046307074              4.440660559661625              2.4398610578601554
H              3.930111846773611              3.904803381208206              2.9273061834588656
H              1.4142752044860183              2.1640729511400294              2.6124875848495606
H              2.2017990440820077              2.0692027742500887              2.441699672352944
H              2.455035970235449              3.9231042520429282              0.6276389819520465
H              1.7558903373738617              4.062716289959811              0.44606613356516
H              0.8516044649045629              1.1221934673157155              -0.5673790081948807
H              1.5621898745330751              0.9821916439302238              -0.6140273199198472
H              -1.7109340901965204              -1.9195460525299872              -2.5640010247907115
H              -2.026792004649429              -1.890067855909592              -1.8557795535834298
H              3.5468002548984763              1.1330312111916947              0.9162830833067541
H              4.1857008568677205              1.536328082116942              1.1545911025654902
H              3.7152282333480655              4.579049782618051              2.581754091279059
H              3.6149556354554497              3.973218627757905              2.9381663141413212
H              1.4256349579263268              1.8846671498116279              2.665674115615104
H              1.6629797867061253              2.407728079117738              2.2499198529980045
H              2.2312873730179423              4.13640418733837              0.26787545023375137
H              1.6643084857054382              4.202389854262373              0.6569465948201154
H              0.8052800961023798              0.9890100619643057              -0.6329956975717603
H              1.5299107665255323              0.7557229755166464              -0.4512245355387342
H              -1.4905774440389767              -1.5414197622378447              -2.5763092125917857
H              -1.697838693753034              -2.0849527609676777              -1.999091948786111
H              3.865382231893315              1.0256640133829917              1.0608829137274003
H              4.140438527314682              1.699453667727274              1.1228482244802345
H              4.033090078382914              4.473122249885895              2.4462873707083648
H              3.671633119935908              4.401393317718363              3.1121892888093576
H              1.36071890906982              2.124076633077622              2.998073540233466
H              1.645635051348674              2.0768429438816964              2.419364947707632
H              2.2140447206456253              3.9019326043004496              0.13732095038188238
H              1.6719265643565266              4.082789447120827              0.6117342170328732
