72

H              1.4799886178700317              1.618907328850672              0.11746543616671505
H              1.5001145381303551              1.1170943841003513              0.6173442341486205
H              -1.229257954999534              -0.06842622460637213              -2.0297430186079097
H              -0.5967059095154662              -0.06493473162967782              -2.1807974692982235
H              4.036062315132552              1.7900631904278446              0.5333569825739345
H              4.306127583485973              2.53722739990235              0.5861649605469973
H              3.792079467737455              3.9612909770793268              2.5352309620204556
H              4.072670354148845              4.5171304083663415              2.930052407816982
H              1.8866760781445944              1.7917147558817053              2.660190275231561
H              2.655097077303306              1.6306645070840664              2.839775621790299
H              1.9865119785027594              4.13539335152326              0.32704498024115974
H              2.069144500441788              4.394927183520151              1.0161852852561324
H              1.5769655988014373              1.210342519097168              0.25083521984605617
H              1.3013619467335236              1.190610268111912              0.8956841493791572
H              -1.3187923649629782              -0.01752169758574346              -2.182242197775527
H              -0.5648902189162104              -0.23286515191280152              -2.10139879791051
H              4.469869202853069              1.7138720501724927              0.5164600751281033
H              4.702096206864382              2.439091527362724              0.704811463360141
H              3.743357606829336              3.9040810071824215              3.0426575519522014
H              3.872806134832042              4.596125002684355              2.838281932151135
H              2.2747411875636963              2.1559343347305857              2.3070444236566208
H              2.338666525692132              1.6624981162282355              2.889233420791245
H              2.317289019384787              3.945895805961488              0.19851863837259826
H              2.1186759701181868              4.2840142504458605              0.8302993985439757
H              1.5181787312177721              1.8599089805411806              0.17631523402424998
H              1.3406879596524046              1.1905210433666216              0.4231738678396239
H              -1.2449644000923064              -0.35666697892737936              -2.383942165682848
H              -0.5172917408412799              -0.16293173255109777              -2.072316572634385
H              4.451309203058403              1.6897828343046237              0.664508333615244
H              4.893885842928259              2.2898250496327335              0.2591387680413159
H              3.4891767015271817              3.9214474795907726              3.0145103322327964
H              3.9521757097156422              4.599358727958248              2.9229202652304602
H              2.2132439116981133              1.828803186158682              2.474060523248574
H              2.0988133871633816              2.005431942532511              3.2414398326057494
H              2.4265561124067103              3.965857645994374              0.15352644119011816
H              1.848985305995368              3.916450743303571              0.7042793726517118
H              1.6887447578840973              1.8062450815616993              0.19584623799575965
H              1.1655330759124034              1.1712378950423488              0.3416413573014882
H              -1.3039905952518918              -0.33239902873557053              -2.3205798939494513
H              -0.6957130174246381              -0.3972112960464007              -1.9792045116671126
H              4.082944675371786              1.7073578444281683              0.7858127108241233
H              4.531392713686208              2.2857884650452847              0.6199408206853224
H              3.529205232386771              4.116896873911559              2.986290343799393
H              4.039249635736916              4.614633879490512              2.74743680684326
H              2.1488948856673895              1.7346465929142807              2.7101834956936686
H              2.3780529973180906              1.9609214587066244              3.41454339847034
H              2.3958986606490793              4.100376958421866              0.49892474294593914
H              1.7102845676745153              4.028591023566828              0.7969811656781898
H              1.427041052749629              1.8027917246097171              -0.08685288880131485
H              1.2024594512185267              1.341637028464941              0.38175228412903356
H              -1.6395777997316772              -0.40202965851642597              -2.3034340893270757
H              -0.9024977483547858              -0.47763399071404766              -2.2540421707187117
H              4.509820997852076              1.6871214755465838              0.7469524568064372
H              4.4917279309012885              2.465957854691047              0.8356327560364972
H              3.34034047950882              4.416291132041788              2.8785905841093387
H              3.9671781284585412              4.480959838816519              2.417172811358216
H              1.9029871820751594              1.5908070848782996              2.76412841000723
H              2.2655065842161903              2.047146199735101              3.157421369098563
H              2.408725089865004              4.136551391134943              0.6295744300974945
H              1.7104459595704002              4.152379171744815              0.8782668468289864
H              1.4417930256221423              1.8004066984063207              0.0043587692031764585
H              1.3974769035673378              1.0893654351433628              0.18725845250141723
H              -1.6351100703142771              -0.15238324152304655              -2.2971005037636996
H              -0.8899264525777378              -0.32703033187829267              -2.5691550280477258
H              4.15284465532567              1.7506983936162495              0.7612709835576874
H              4.404139906542016              2.4843714908532757              0.7012333121568097
H              3.4521798856382415              4.110343040877113              2.6341316108073967
H              3.9889706955338182              4.630903699081193              2.7680562039280736
H              2.030063668852264              1.6016290939016178              2.4578519139818766
H              2.3733788560598423              1.9713245679292388              3.044647567918922
H              2.1044686869605953              3.976064228248399              0.4474068204892495
H              1.7570264532303275              4.33057927891127              1.0203016134259375
