72

H              1.0786341697575013              0.7371398342822877              -0.4092520663456497
H              1.3170307849031602              1.0794628668275867              0.13239815544958872
H              -1.1558083142321032              -2.0860789247516665              -2.023557338339634
H              -1.7845899511050485              -2.209608870945371              -1.7695517247898298
H              3.864354505650602              0.8682698018371848              1.2393107451208605
H              4.313913399894766              1.5127954025016073              1.018796581147613
H              3.9494385078296217              3.8015806448755765              2.704223567874467
H              4.400497400871035              4.179452294265859              3.17268993133689
H              1.4132379480362227              2.0089873848615083              2.9417368716881716
H              1.5834114580654886              2.2828100175909882              2.2443646552691026
H              2.595982682991565              4.24347911359377              0.17773372923953554
H              1.9115330995666917              3.9910069242745223              0.18496369009024827
H              0.6890999444788627              0.9613394271442163              -0.2628204032577696
H              1.3401190079967158              0.6320185219753192              -0.07643662187374704
H              -1.0899829844320177              -2.2333286557665066              -2.107090714979444
H              -1.93892801592646              -2.1485778547149548              -1.969090512835794
H              4.091564974784745              0.865762904060136              1.2093445924287527
H              4.334891137026809              1.6104873851518684              1.1804292064096977
H              3.738104920963771              3.7061620072266352              2.80150167683366
H              4.09851518796347              4.327666165786261              3.156236229785491
H              1.2019021411448096              2.0064879227391974              2.7501040590694887
H              1.828654634669367              2.2310940942451425              2.4897282398481986
H              2.8258055707460983              3.8580651309095906              -0.18922972523752501
H              2.114084719469978              3.7826593498062904              0.0015906540567293787
H              0.7191521976855334              0.5724304664103538              -0.3320876490712402
H              1.3710418235864743              0.9029361811408126              -0.3931495923944485
H              -1.093084037095429              -2.46480094307888              -2.463325931660904
H              -1.643782318666179              -2.1911463602528887              -1.982583191617851
H              3.761357188581175              1.0799338748972112              1.286248846240326
H              4.375583318980567              1.3728201067504409              0.9068155582803062
H              3.484377469546031              3.793236257321348              2.6062706272953946
H              3.919601636579097              4.136556351256176              3.1388049525267325
H              2.0355487667197036              2.126064286109173              2.660454122388775
H              1.5222549948171276              2.3675758046564765              2.1970555599450607
H              2.668161176166954              3.9446656552020394              -0.22092911041349292
H              2.226006083942003              3.9224570199058926              0.32003856480155585
H              0.583436668238398              1.0566627035021086              -0.32861815398484917
H              1.2749987011830592              0.9505135605192966              -0.5197786327623325
H              -1.1027781679433495              -2.2209493326258056              -2.2361661049112014
H              -1.636271900491387              -2.571560212898582              -1.9952758480214585
H              3.434541620343988              1.034313970275574              1.3014915849199487
H              4.053779966354134              1.309181465398826              1.2062047180364541
H              3.631280077007528              3.804523940445207              2.6676584869169035
H              4.1146838924924145              4.117485903467552              3.173835826145495
H              1.9274622995998862              2.2559723316161353              2.9302338650081685
H              1.4709155489099686              2.07095082826425              2.3031077799500936
H              2.588073620471215              3.692030301280165              0.09340183634545407
H              1.9684082728190972              3.918949739628192              0.41977938580637225
H              0.7057397683051977              1.075615993400468              -0.18820053639863807
H              1.1818841512517633              0.7578602856316633              -0.704974201260693
H              -1.364539688343449              -2.3130679437800645              -2.305123798009339
H              -1.885138468661759              -2.681528367644802              -1.9289108300993045
H              3.836336404883614              0.8525778126656228              1.3450672148142724
H              4.333089022841693              1.4257484554922684              1.215485985419134
H              3.5454187230648775              4.108517707103409              2.880477998629516
H              4.353374687341035              4.240887558103927              2.8906230719130854
H              1.7411132769594049              1.9221060418137446              2.812550424359063
H              1.455133938295391              2.247458177793179              2.2325426632263303
H              2.608743458144016              4.28888294445526              0.39138247759887373
H              1.8923128794133386              3.991544473483317              0.34355210533470726
H              0.7817318448326473              0.9593025881827674              -0.6417065329888987
H              1.3282938681007437              1.0040946578698935              -0.19871060862711795
H              -1.5004723152970374              -2.1055677673048105              -2.348607403069876
H              -1.9161577916240689              -2.4721018969967417              -1.9254675215247672
H              3.739131603298525              0.8230223012911929              1.1608131231394052
H              4.2584776467310075              1.24979333818447              0.916089808756789
H              3.7037505640769184              3.9168355582049883              2.8014968561665077
H              4.226743363246291              4.20892493909194              3.2530146897131806
H              1.4676837139577525              1.978017529626565              2.79865567525327
H              1.6235000550620133              2.3860526049550512              2.259369874153415
H              2.4090590993318863              4.349806013532897              0.1684038396547188
H              1.8253981321778987              3.931826520916626              0.33219943078788944
