72

H              0.974851640964804              1.1076531491499781              -0.4738144633319705
H              1.5510778295080763              1.1717165100402196              0.07500768280622085
H              -1.604468527434537              -1.4043708852021022              -2.1632467393985197
H              -1.860563416415733              -1.5737958263390792              -1.5970488027047398
H              3.3482687141209007              1.4884706055321972              1.0186737203458864
H              3.9454264616992187              1.8383272765711414              1.2006124871818915
H              4.173759600560519              4.440438479363987              2.6860008665367476
H              3.8507409537782764              3.7677173906541945              2.7357203314262866
H              1.3261210558968497              2.360271692338913              2.506718294868897
H              1.970952081598282              1.9864745331903555              2.3667603142947446
H              2.170060013141811              3.8530724991857213              0.5774872815347445
H              1.5057292571658798              4.005260115722799              0.8934810813390491
H              0.9869284915970813              0.8296107438512503              -0.6062623611117003
H              1.322425542768382              1.2922947377288545              -0.12438275588290841
H              -1.7379749380913132              -1.5287237698003158              -2.4911508498489328
H              -1.8667267016011997              -1.553313862549659              -1.76979425240641
H              4.007530097215315              1.3208423026065372              0.7989342426069649
H              4.338546040987353              1.8490601776491715              1.1564816887783023
H              3.8905674680850395              4.688282223483844              2.4772146856806008
H              3.6488312759540706              4.140582307117492              2.919761648639444
H              1.0853155620632156              2.3322369575359905              2.6691005877963274
H              1.7144408736191177              1.8483266303050707              2.5082552307673045
H              2.2546255746178288              3.9599784863399337              0.3434035649761068
H              1.5695316845065062              3.9852706814088825              0.48344688409562225
H              0.6315701381963369              0.6253110627846183              -0.32885308526307855
H              1.3054042315389225              0.9636550948899357              -0.2279848348955522
H              -1.6681670482346453              -1.493240352704261              -2.8045038677990637
H              -1.5816149561755226              -1.5501946945561909              -2.068932126863594
H              3.8827272435395              1.2955723385119486              0.8044630026775489
H              4.336258767040695              1.8221734521518902              0.8306951892694673
H              3.973305206341778              4.699850135774894              2.770205896245664
H              3.4943333769652583              4.20389245837914              2.85226859597422
H              1.1607302873256702              2.291629613712717              2.666797013253611
H              1.9084944503579149              2.1080960243002034              2.60109342002877
H              1.9653793636308905              3.837190050020395              0.005428834493150401
H              1.7959889095679094              4.146362282154091              0.6642523700083912
H              0.6859160453546703              0.6217007440287596              -0.4515786634117933
H              1.1430216495431285              1.0575072586490695              -0.017742950968840775
H              -1.3244458577998068              -1.3410823731941057              -2.4156076952578527
H              -1.2325957017988693              -1.6741424323528962              -1.8414830885386133
H              3.8526354173362933              1.379804730007872              0.8056181260198708
H              4.0103249416805555              2.145354909744727              0.9125813806830525
H              4.2908121990996015              4.456918542975441              2.550504655463019
H              3.7942241300294985              4.144336735702842              2.945699068993629
H              1.127535600921864              2.392080795062426              2.921104465992508
H              1.7259874103349557              1.9145248729794346              2.6723838501938912
H              2.202170317268829              3.9987630654180446              0.31047083724514096
H              1.668025058998311              4.152329679749379              0.8339742599746651
H              1.3331472224417595              0.6633141165733876              -0.6393747122452396
H              1.0035675313044439              0.7357058942473954              0.039741110995025884
H              -1.5267560808007077              -1.2382254696934203              -2.2267508286978597
H              -1.4949893971001027              -1.9426183785039701              -1.822888784193768
H              3.9443010415680178              1.4815001718081495              0.8860528295793555
H              4.213320444625652              2.1069160129051774              1.133645768808523
H              4.258101927291103              4.309786096535898              2.474103056298596
H              3.9146650263052365              4.066701948163975              3.034730577713325
H              1.192934227858744              2.3978111712203702              2.8984705874468863
H              1.7046622914851564              1.8140181334003131              2.5961773861507655
H              2.439708564915813              4.08110606004819              0.726321650252669
H              1.6951642795149144              4.0953108577396184              0.7555785494508308
H              0.8064189440639398              0.8054321732245323              -0.4668582719225031
H              1.2419221894412673              1.0864456619787095              0.11454630131418105
H              -1.6434768547293497              -1.456933801677996              -2.3420629028858575
H              -1.6366266412443067              -1.6109894527350705              -1.5306774913304813
H              3.590146060345962              1.4695800418389684              0.8013213782325865
H              4.1683881409196255              1.9549001341607537              0.9926319926999608
H              4.116270500385898              4.35236775478494              2.6612622059465125
H              3.8375597031363613              3.6969645044431387              2.7875426906264393
H              1.4955757446958369              2.1090159539357733              2.8945517760664234
H              1.4609541089584779              2.160697205260174              2.165523778226374
H              2.198489192660266              4.175142029831107              0.5643984941182152
H              1.5998303308161              4.154224730429553              1.0011401972424039
