72

H              2.0533363865350385              2.2655308749653664              0.2787990604548942
H              1.8640400401007045              2.1008260845877635              0.9865194615606253
H              -0.7042276475388697              -0.1328754123632634              -1.700611522878351
H              -0.22841845398422028              0.2982151540974396              -2.117665644816244
H              5.076750013754349              2.229446769448419              0.8119051607020442
H              4.619816077115558              2.2291070964726116              0.23718459101102668
H              4.035095531788808              4.711324410776164              2.9555487851760254
H              4.24762589365996              4.1031370556589915              3.1659972578294937
H              2.7233421802015214              1.7346868065380858              3.5355540700238204
H              3.4346846394492094              1.6789078179296548              3.360608425529292
H              2.8567342990290556              4.405084995454798              0.01439352091937641
H              2.632995877133324              4.6187833565932195              0.6710489225972978
H              2.357310466746514              1.9130405541803324              0.32343644485231854
H              1.6618470507417913              2.037630386882507              0.3838122589738138
H              -0.7609765025835339              -0.26792092172936466              -2.1159633309784485
H              -0.2765573192846912              0.3297664975733458              -2.3290225530103017
H              4.554787278335894              2.0885115021347276              1.2002116507830813
H              4.260697330280554              2.4372713012872036              0.5848905193928006
H              3.78988221949348              4.673674591775948              2.859815685375644
H              3.929234139116509              4.301392120236758              3.4660310229979405
H              2.7592302070953036              1.5993935310498963              3.2319301793022492
H              3.4191773536008325              1.8728532422478181              3.4392659137092463
H              2.831348668371526              4.3861287439312955              -0.11281908129565629
H              2.4697960690638383              4.639612831992243              0.49951501608804627
H              2.2624360595713116              2.0367353007587927              0.14737126083418361
H              1.9337144587707957              1.6473312900781896              0.686969289349847
H              -0.2711653302616358              -0.23228359796178322              -2.150454542383661
H              -0.013890840205166437              0.3033807579696394              -2.56834204343552
H              4.943845277047591              2.351251918057871              1.1720522356871306
H              4.328162085986154              2.4876286726972046              0.8499339727120022
H              4.159167559821991              4.949125530491903              2.7383685869618755
H              3.9474656915575634              4.328079085942259              2.9767279482779188
H              2.995321204174464              1.1953099089612602              3.3601339990698906
H              3.0537866273616023              1.886174690189025              3.130588411094884
H              3.046325966532885              4.476828236014215              0.16654141071620027
H              2.5151962240484855              4.72609308061437              0.5833108242158057
H              2.212563538518207              1.9378359415609314              0.36910290524211053
H              1.9320547291967962              1.389969460442915              0.8389035865893691
H              -0.36326160838282306              0.024557777188796818              -2.0360197130290514
H              0.16421371968766768              0.36552190096588266              -2.4170125901929094
H              4.975125210184591              2.186918007196259              0.6778254342277644
H              4.593823271218371              2.735673059334703              0.4508156013971335
H              4.271409000269927              4.681548366492456              2.7151090068821975
H              4.048056346556677              4.387141830919341              3.340728460239588
H              2.9991751619672957              1.476871588324161              3.160144986052083
H              3.391782021577627              2.0600586393837452              3.031449537473908
H              2.9195407048028645              4.635191230569339              0.05478139193071507
H              2.571201091484101              4.370861438843485              0.6426357337199108
H              2.3955305121798283              1.756282910146043              0.4197426712877492
H              1.9038250426430772              1.9634883284693923              0.9496187179599943
H              -0.4463553835073757              -0.09294510484405315              -1.8790164491679697
H              0.12152993928696687              0.09407137037400995              -2.3323116168415474
H              4.72505438967618              2.1349126242127165              0.9301016076419342
H              4.824974569845789              2.588075511279735              0.3819534881979293
H              4.3443626058631235              4.267376000445583              2.892300835032798
H              4.056966880275199              4.187952758135799              3.580496445502218
H              3.122084148933529              1.3032305549927852              3.2543929169671535
H              3.0600662895728012              2.1185830571926827              3.128027247725564
H              2.91279712236974              4.667226554592968              0.008100717246637296
H              2.607467877650035              4.2500448999379214              0.49838572439290224
H              2.329985112313075              1.6758394770934468              0.4725522176987855
H              2.0777727032810054              1.8722569285299508              1.1062464006763548
H              -0.3614978781430191              -0.0321464811381901              -1.5976797227414041
H              -0.03298577433894282              0.15043114482686148              -2.185393765879048
H              4.776140443306948              1.994005745644444              1.0719454222425742
H              4.642142752413984              2.5739432756109633              0.5265127930770614
H              4.488495967734717              4.284641197843081              3.0223133030439713
H              3.9713523240549793              4.06160400564838              3.448713433967687
H              2.8453095262045918              1.374310063991341              3.398814762694763
H              3.108602518049488              2.032470687720338              3.312175154222679
H              2.7953344422555064              4.497869974779687              -0.01500759175822466
H              2.6964649695387233              4.114057687155158              0.622726435690786
