72

H              2.2981587361487574              1.593281201236045              0.5856049124202337
H              1.6180600643796974              1.6849534606837089              0.9272031839905144
H              -1.2006584397700046              -1.164908907997516              -1.7732041613079887
H              -1.4701482563666246              -1.28289296806628              -2.3599603033843466
H              5.0005760939850346              2.1029151748335764              1.3274038982902185
H              5.219447100342434              2.6364176989366337              0.8848793517135685
H              4.476626137613543              4.945119634628825              2.6496151957063923
H              4.5431568504575495              4.244312682401904              2.9505063438286605
H              3.1027255895809587              1.4824529440200371              3.9109597645359018
H              2.925169120141534              2.1300640976192446              3.581699557627331
H              2.9384585985642158              4.552453327071712              0.769931112337684
H              2.9559829059876974              4.056376703838646              0.22727350941761304
H              2.24379166935128              1.2021124745065785              0.4889970853742147
H              1.7269271289559265              1.4944408290874567              0.8737424207631578
H              -0.8202771864907656              -0.8976022182906853              -1.7589987434896166
H              -1.1260754804828819              -1.4154039689539315              -2.2443659065510424
H              4.949873527354169              2.3713135171463766              1.4124893568761552
H              5.131115646777821              2.515501678878175              0.7103213781800298
H              4.433216259114867              4.901851558641001              2.789898698183571
H              4.480190361633696              4.190319327954401              2.8531712175343342
H              3.3372896114491946              1.8277659180352361              3.8096116621456586
H              3.0130759834190624              2.2041804729755077              3.1594548495201824
H              3.218967155346368              4.437388056845145              0.6792811118427335
H              2.638356222845465              4.264750944416306              0.31432035731416985
H              2.0027952975108976              1.1458345284166402              0.778817395524501
H              1.855213138448924              1.9083547667733132              0.6219373134005638
H              -0.8284866642900662              -1.177392787391978              -1.6018060775976781
H              -0.9842753960846624              -1.4615485508388295              -2.3905201747567184
H              4.904423523936167              2.5422820210578667              1.3750376471109622
H              5.147423765550731              2.31077020133156              0.7244579723695869
H              4.176544408708264              4.90061346190415              2.7946595439275437
H              4.450526836266109              4.205855971842163              2.859562412894399
H              3.342136194321713              1.9153431767331779              3.8071236372846915
H              3.0487303109867687              2.1380140547192674              3.141018409538638
H              3.2139438489689507              4.754363894384665              0.7412776046083868
H              2.847808978193158              4.383772436161327              0.19903486356021582
H              2.3889319386589247              1.2063184317448432              0.8862453950900165
H              2.003974195495825              1.5411077539818523              0.3336914131139198
H              -0.9967355448852336              -1.346844259036713              -1.906883619063644
H              -0.9671123825705233              -1.7716763325500369              -2.5014929544493447
H              5.118310218865917              2.1725965077653537              1.480900791836214
H              5.132518483181629              2.5671727709360392              0.9685570868220921
H              4.26815224305899              4.73712441011716              2.80345878154744
H              4.284359018996401              4.0411459420964935              2.9549819813079123
H              3.153353939610662              1.7864181421342662              3.881871064781427
H              3.025712953987456              2.021624070240407              3.1456036819867967
H              3.2312153341246077              4.530183158050199              0.2969045048530682
H              2.545999915240654              4.194944798262175              0.29643004982391646
H              2.4470152944699652              1.3067034386011307              0.7319854037358122
H              1.9705182904428686              1.8264127764075853              0.8390704921205976
H              -0.8858548907288234              -1.3572119977239145              -1.8756071943559296
H              -1.0561088184434673              -1.7243081098442075              -2.534883682592662
H              4.935105358900823              2.378113711289689              1.4422339816681704
H              5.37235638460713              2.7706097553260873              1.0340269480177027
H              4.558868385155936              4.7146207734962875              2.8893814160041438
H              4.566108952001444              4.033503556619824              2.854438467630101
H              2.881601443966475              1.4479409067224795              3.515897051929925
H              3.0877020805264266              2.1435031297612              3.2326765306137752
H              3.078335496986286              4.513385982072389              0.3995160242034576
H              2.489599576146969              4.174636486855155              0.5765161284939906
H              2.228075742883902              1.1892806091215684              0.7371292393758723
H              1.8760314018573585              1.796164606797035              1.0885303374204454
H              -1.115644419837511              -1.336372195266832              -1.6355844429246014
H              -1.167440102429359              -1.5455231698307261              -2.261272557691521
H              4.974644841435108              2.3757265083633046              1.2017716376689138
H              4.918141920823694              2.6457366421254513              0.5173858267680622
H              4.661193498605538              4.627534424488749              2.7361752529573424
H              4.534428350828668              4.10898197622777              3.3413663581767943
H              2.9378728977289152              1.7004008066250915              3.8386788941898695
H              2.89721135805364              2.3417966573280142              3.3100367539072773
H              2.976688920085236              4.68196639563254              0.6082652698312053
H              2.81455430707692              4.179975663630507              0.17776465923168955
