72

H              0.8045891769490787              0.9864293346263348              -0.49944294124395605
H              1.3485069272748542              0.7194302571095853              -0.9396925769250679
H              -1.0047240686136671              -2.376060961058468              -2.449439201712435
H              -1.7688232522978813              -2.5839267341515253              -2.267958796228941
H              3.961707218769791              1.0425650780997964              1.4003429944729684
H              4.305065128525764              1.4508647912980177              0.8766392217825038
H              3.613211873269865              3.804513273888192              3.078100172689172
H              4.144765935393644              4.3039719914241505              2.9480476996558647
H              1.8028686346595755              2.216758463130511              2.859272788560867
H              1.574968908285032              2.4649089871345975              2.127754461425226
H              2.770751315447299              3.8022323623877683              -0.20195111126295512
H              2.250531539272621              3.8137071390966955              0.33921299462524074
H              1.1111604697933186              0.6648704979735354              -0.6242398920105304
H              1.594222042617677              1.165881156392841              -0.5965659141131705
H              -0.9011139509281725              -2.4807606680719627              -2.15215938617555
H              -1.4948686450485464              -2.4530540320694736              -1.9326137311665976
H              3.756294348921974              1.0554209456312944              1.375386250952991
H              4.246054676585132              1.3872097861401227              0.9671854789193246
H              3.837030959331154              3.5783692044766435              3.115228520054899
H              4.427999511459609              3.9994885498206965              2.937351411378007
H              1.8554293152663404              2.143493622033567              2.456323846014641
H              1.188333797228832              2.419897075818309              2.403723936037878
H              2.695262013626734              4.248957651293188              0.12984943899116613
H              2.2036448611375388              3.8413496951528154              0.5806004837585357
H              1.0605176927725257              1.0964515547717801              -0.6014055889153768
H              1.563629660399621              0.9477326917839558              -0.06865101853076508
H              -1.086814175045794              -2.3476576707590295              -1.7951698040206738
H              -1.736332542802918              -2.6198620898911513              -1.8320164436450577
H              3.729645560846688              0.8779082727319504              1.4531892514295648
H              4.290009122463534              1.3774974212518132              1.3637459585280867
H              3.97753229653807              3.5901520780226353              3.19622642375368
H              4.5705615754880515              4.064930619987175              2.99505177872703
H              1.2720265032062383              1.9789746292436157              2.9014265186156165
H              1.39949094309635              2.205368885535621              2.212406562320709
H              2.6634617268797705              3.9904052992628163              0.41607559357284135
H              2.038606285029194              3.6637344079214613              0.13457331237490097
H              1.1040118635712288              0.7089400132013097              -0.6583942845733041
H              1.5542750858756746              0.9885217873278893              -0.12241957527343295
H              -1.323329845932083              -2.4809112857020956              -2.1479192811346994
H              -2.1157982275127156              -2.5430715875235963              -1.887924005872875
H              3.849290003901643              0.9497193254719558              1.317384875805251
H              4.513557671085485              1.3748427177708218              1.1639280251440214
H              3.5981529577223266              3.900152482399004              3.0641153817302067
H              4.321584575137956              4.129404651654392              2.987686175764419
H              1.563614173683464              1.8863129064074495              2.6003859832320706
H              1.4051138402963779              2.3669930552543645              2.159371188014741
H              2.6347088274285326              4.125370637227923              0.1494431605427463
H              2.0428155474556378              3.8008969774985024              -0.02605259645258027
H              1.2266867032945956              0.7063656039909785              -0.7401032967333764
H              1.4290480962326115              0.9759649709939805              -0.16445140990768617
H              -1.3173336878602342              -2.284397536600692              -2.286775178670048
H              -1.9466062489653733              -2.6241895195235023              -2.180119934550997
H              3.70204928297615              1.0775675900352655              1.301483922740306
H              4.463080642978499              1.0775016558676913              1.089795353472745
H              3.6480571063607847              3.7864879650307874              2.865726686884598
H              3.935846995321867              4.181681048728387              3.352497935605022
H              1.660884003886851              2.088957505367521              2.848555446526941
H              1.312121389744248              2.415670864273213              2.2095251266507185
H              2.5473289949089124              3.7055029176350605              -0.28778157422704426
H              1.952150543007643              3.853240149174087              0.12111219925916863
H              0.8543918174423564              0.811171505072403              -0.4939688016890574
H              1.5604036413435014              0.5996215764128365              -0.4288145603328334
H              -1.017707630404258              -2.336517290562517              -2.271850970689393
H              -1.7317583160249392              -2.6468912381743954              -2.2284273674284205
H              4.1042437722637475              0.9172046784483385              1.46415515119241
H              4.476546423760365              1.4936482264778443              1.193081735455975
H              3.5977901413541633              3.840214938276443              2.9294794313238053
H              4.1189189641527335              4.398652168429362              2.9789740788310533
H              1.7247244328057136              2.2920329679845035              2.9059172651213476
H              1.3310569309477158              2.271984065271105              2.2849285974349427
H              2.6903224412355966              3.7047283168628606              -0.18078436634821776
H              2.066835849581098              3.883057035061534              0.12627685819066767
