72

H              2.144388970962579              1.9552689306551723              0.35132411540429653
H              1.8758976162230772              1.999220938105977              1.0745679121802434
H              0.0689749885987538              -0.3015819679034901              -1.7970305752019202
H              0.1810282734304009              0.34070366309306355              -2.393548556979637
H              5.459793824372805              2.488551475939865              1.262585711748734
H              4.74014693377113              2.2060170442778952              0.972244912698499
H              4.105692823738168              4.541782289359433              3.034906895535069
H              4.06827299571687              3.925902175070899              2.670163158508767
H              3.4697205410932295              1.272923131998053              3.214139641047927
H              3.410678713328611              2.0171463533274046              3.1288791384810115
H              3.0405111382157575              4.072482708250898              0.5939068272718137
H              2.7004158505210047              4.726098749415066              0.4563132304839899
H              2.1916539606382344              1.675505887322332              0.7229791130127858
H              1.482794693418576              1.8035938095464545              0.7288088440936843
H              0.4050560226218911              -0.22080597403636398              -1.793551711245065
H              0.42111011420890165              0.5232332942669401              -2.135287161587065
H              5.200456378784444              2.357843088738318              1.358151549585259
H              4.758941837061161              2.34142799707557              0.7113172782371673
H              4.394949494320899              4.524893988249705              2.997302703139198
H              3.862786680803028              3.9820696216274327              2.990382396444451
H              3.4435804230133873              1.1704918882357958              3.225241942528036
H              3.439329382879235              1.868938716552184              3.2928714406787742
H              3.0092385845930814              4.17433681809184              0.26950041674612346
H              2.902664899086724              4.514707319184272              0.9288492076462186
H              2.122829723793291              1.585860280936089              0.8494744206365963
H              1.472651152955117              2.008892035027147              0.9491251381629034
H              0.39878695256062324              -0.4016933703773832              -1.7278988362675145
H              0.4695466747992717              0.26136271619856194              -1.9440278925425651
H              5.478677761576228              2.4103224522806364              1.4260229918870344
H              4.936110748513646              2.3321901976932757              0.8910881900324102
H              4.412877097198116              4.696200639190902              3.0498413346709903
H              4.057802308231178              4.074236756165799              2.9316295529364393
H              3.4609939749457213              1.5038989648849332              3.19332231994542
H              3.279515390673355              2.1461164805590656              3.07359191555481
H              3.3226889412796803              4.310133436840243              0.29704523747600253
H              3.059834041478288              4.72901803161436              0.8306159083891146
H              2.3729984203171237              1.4693525051470888              0.6339200259985042
H              1.7231402110994485              1.7078211444226072              0.9401126371373937
H              -0.04699019401642281              -0.5864859260910316              -2.0437414796757456
H              0.15401781072443796              0.127683949345719              -2.1501423429623876
H              5.491801424715692              2.5397247849351663              1.4060182071306855
H              4.9355159059614495              2.257726071057742              1.0660276105187647
H              3.9817889017965125              4.83106331792331              2.95435019270617
H              4.195442323451372              4.1858685369874395              3.2054797464235714
H              2.8881863678206248              2.075059285044187              2.983160177433607
H              3.559810499848586              2.069953567401358              2.830178269296016
H              3.424241932707985              4.200284262661237              0.22566704268415666
H              2.8580252613880135              4.517543072606931              0.5256916446569315
H              2.5370585747859424              1.5791453164720917              0.6756913857284724
H              1.8614179564812028              1.9534199413090358              0.7695439752900795
H              0.04937506139224224              -0.6219146151044831              -1.9774359923525675
H              0.056768724366050925              0.09733613331439765              -2.3235903985593174
H              5.491507415053255              2.5073843716692417              1.2495809351522706
H              5.1807267525448015              2.163596308496893              0.6382187112783254
H              4.030075866404868              4.765846788323334              3.0443818214598934
H              4.26303691633521              4.113690498110718              2.808972028083164
H              2.985036120444089              1.6398058104922872              3.5187758307914523
H              3.2387335313002117              1.9590770256983123              2.816620705239194
H              3.097976725531759              4.228835884920808              0.43249332916017424
H              2.6353209889625284              4.653235728981325              0.7476105107663846
H              2.3764958123305395              1.5522880705767932              0.7015292801084494
H              1.7886843218004624              1.8458717965736002              0.9610145294322143
H              0.04028673838705607              -0.26395572335865547              -1.6746167634757243
H              0.14329737435829865              0.10405805958877376              -2.2892793664933624
H              5.465212889920875              2.124279389055111              1.2591421849573743
H              4.963188823191806              2.443405001405662              0.7480806318661469
H              4.241082644535625              4.479336776145773              3.2179583381043333
H              4.006814803787501              4.058287325458829              2.699522101585864
H              3.356626498119986              1.5722424069186225              3.321225357973574
H              3.2392780557054532              2.1979547414350065              3.048756710433197
H              2.8495174717787433              4.1943213632260266              0.4270533355663249
H              2.5093937876972525              4.83215079184409              0.6485144609465782
