72

H              1.2877452180461277              0.8890056643997076              -0.31326114993855175
H              0.7954615613454159              1.161672125349149              0.10572961052954025
H              -1.0875821308916525              -2.287038694472344              -1.8956212512925343
H              -1.5951138768572364              -2.7051501069338766              -2.332630537030846
H              3.9339544780830638              1.5271339726508046              1.5322529111204364
H              4.311608283943391              1.5584556840035233              0.8642395768860387
H              4.201413295755397              3.6447933554586562              3.4692094301089718
H              4.384186725145408              3.911639892569155              2.755361547361467
H              1.6372229946875099              2.297319277571383              2.7255637725357396
H              1.0494083502451537              2.423029506305997              2.2760515113487134
H              3.0237510223781077              3.7357128941792954              0.25717710651027686
H              2.3658307762608626              3.5649039549464003              0.08128761995304723
H              1.1535780592557352              0.5936277522772444              -0.008252326609492834
H              0.8253283506318578              1.1380605690707948              -0.23398179627381113
H              -0.8953526478949283              -2.6036535522380104              -2.0279230077593597
H              -1.4994089046109669              -2.6627515457275233              -2.296002219889454
H              4.1558509659253735              1.4769080295544856              1.6186638547000378
H              4.655898316716482              1.74102041024695              1.1630951532834912
H              4.0012500523507555              3.4219339209187836              3.4568513627377535
H              4.171196662171954              3.8017601601661797              2.7890590990725945
H              1.4780120378036228              2.1677592947803785              2.2814504625679177
H              0.8258489561090254              2.3253142713904515              2.256219959241954
H              3.1400764903658276              3.7152664070253265              -0.09034317644188435
H              2.6709917177705136              3.5745151147122973              0.5072683841506923
H              0.7695012304580308              0.9329051800921305              -0.5358234264013304
H              1.1572662760935852              0.9582113601886229              0.0938246341896012
H              -0.7605673182178251              -2.5567596902466008              -2.0959273102649516
H              -1.3231098818301381              -2.9077120462539026              -2.4166168511839103
H              3.8325766291314993              1.4446824309978423              1.7035201549462906
H              4.413419718078709              1.3537931913260315              1.2385074409862002
H              3.9181901798249856              3.309133675815367              3.352163018022354
H              4.006206215014869              3.911128532617585              2.8284203933340635
H              1.5723445784139434              2.1370903974427367              2.4690555994780583
H              0.9864668851074251              2.3974496707837307              2.0995753357732343
H              2.935102291148044              3.2034500122646605              -0.02250219583156463
H              2.500703958918241              3.5036381429346477              0.512399940882519
H              0.6277952779980263              0.5893122615662697              -0.1848101801979394
H              1.2415633908302002              0.948700110711911              -0.15455293532404216
H              -0.8990798862154938              -2.7226308830991246              -2.0665806311246055
H              -1.6046478631541325              -2.934519785241551              -2.3969311048138904
H              3.614467524789896              1.5181302549568996              1.5903245065227543
H              4.267299439366953              1.3452174919135538              1.1918891908629388
H              3.8502638101947895              3.981422968166886              3.2509718034517165
H              4.330381970257923              3.66145507856576              2.7258755316603747
H              1.5932841365134525              2.163909315543192              1.958597975113481
H              1.2462004929725006              2.2324064926483973              2.6608316237907306
H              2.933375673797317              3.4902654061766567              0.15339338592680507
H              2.360741670523775              3.655262946515547              0.5275310273023561
H              0.8858082407538891              0.59353220661555              -0.3292694444483547
H              0.8202345861241059              1.112366717007876              0.09667294424964736
H              -1.2395004981761537              -2.6936248123347486              -2.1836703422241457
H              -1.7617437129726796              -3.16939371091782              -2.47531811425614
H              3.8501576305945653              1.222077784206517              1.4948729854555947
H              4.648376024555654              1.3042089520573195              1.3813238409251951
H              3.7760661394756387              3.683742632774438              3.4887965064860262
H              4.202164640224691              3.9458804092901314              2.9402672461198174
H              1.3235142969329725              1.9262080012231242              2.2857712270223134
H              0.9046095302025875              2.501973944103662              2.5916521698698425
H              2.744737143388964              3.858249878688957              0.024241002906272315
H              2.1889030704131867              3.597066350361042              0.43049693190004185
H              1.3644934430726912              0.6785408086196976              -0.43890974910638997
H              1.0423022062374194              0.8611441838050562              0.20964890656762739
H              -0.9776472970450663              -2.485597312164937              -2.159833687559798
H              -1.611254345705282              -3.035635819748593              -2.2507224239046684
H              4.16235845826782              1.1647973031821754              1.5994969884088899
H              4.648956495865585              1.4600397148079804              1.089928807593355
H              4.015476213075896              3.64253338241187              3.422910643010322
H              4.148753475166893              4.011297243443406              2.777351909102351
H              1.6946980997273027              2.244250225663273              2.375264111050001
H              0.9510082792169544              2.638712519125491              2.3258676633299817
H              2.5819515501605346              4.192629911349237              0.31080318351798464
H              2.225576399651843              3.5891629422001414              0.2634362540959513
