72

H              2.674850306208239              1.7571644800085886              0.7599686612184308
H              1.9038488645253353              1.8179559920448864              0.7042222275678992
H              -1.5879399528323068              -1.4723295743856988              -2.153812469447347
H              -1.1513963953187851              -1.5535291545721315              -2.7157714459435036
H              5.095493090123127              2.105006336564898              1.1479809059679433
H              4.887065430356332              2.4162408691980066              0.45663467801377533
H              4.135988551582315              4.71055735674359              3.106796521237979
H              4.592655167570889              4.174462857820054              3.0183128241937625
H              3.5229515905352944              1.503428015606901              3.4932072473502447
H              3.12180844047995              1.9988291061449017              3.4006201342939364
H              3.1130505838065354              4.175709280150189              0.9819689280166238
H              2.5527267719473024              4.260040934682729              0.5057296986637098
H              2.676385149517549              1.8053525964129562              0.6218732146472354
H              2.0574007256383897              1.947827056465478              1.012898100459213
H              -1.4357652734459838              -1.4858709977585356              -1.9742966435444045
H              -1.0820679884535542              -1.6505482883873317              -2.6654025362786813
H              4.814830135369119              2.332530148391886              1.1652643257427655
H              4.9148309170285325              2.4793400477194747              0.43648520431487475
H              4.600384949273783              4.523835059858978              3.2466594020669377
H              4.689575658682795              3.838003177589835              2.9824074253634145
H              3.5185417324763137              1.5054689684610765              3.243888293614364
H              3.1276022986351384              2.0929633755496275              3.239652948782165
H              3.209267713342195              4.351200372167919              0.8384887595061106
H              2.475513419492047              4.470131706588001              0.6384300276132934
H              2.272869424280883              1.7945666590796143              0.6655247297814652
H              1.8658937855755364              2.218880398270439              1.1142072187266545
H              -1.69134284780278              -1.5388825209346197              -1.674725830653318
H              -1.43158999098827              -1.339239605585973              -2.4262992513840365
H              4.849778771197356              2.490927957121339              1.0896688355852602
H              4.619219623022841              2.2788997258160646              0.3887882334626185
H              4.622473686816832              4.529903570415169              2.8978767963275485
H              4.8557647786758835              3.880612834358408              3.195512757953373
H              3.280150855564698              1.5949007789147653              3.6303295869677785
H              3.0470165261314124              2.2990417273178925              3.2804105112465085
H              2.8870903347647645              4.594046073356113              1.0617179098588694
H              3.0298558001129345              4.4975564154310925              0.3357783915101717
H              2.504188304807431              1.8817940283999446              0.6239654771148608
H              1.7693270706481363              1.747497314112364              0.8410106285436337
H              -1.9234564565486973              -1.3522945909643305              -1.7788742516992724
H              -1.6501334612246965              -1.3521131892997125              -2.4820101226618183
H              5.168886706027355              2.2195959549110165              1.2329810933870686
H              4.6503884942115645              2.491129950379783              0.606299655889052
H              4.643505971005235              4.623155116562617              2.711196038983841
H              4.718892553870155              3.981887821714601              3.0789766615452336
H              3.448633980337421              1.8615639135785105              3.469841362408796
H              2.868389466732265              2.0845000789729493              3.9230847645721396
H              2.7875832017854445              4.579052300739741              0.9230325264678717
H              3.008155969022165              4.459132329638313              0.19141055307283417
H              2.3318147744127113              1.6475283689574827              0.45923237562372965
H              1.864889064392955              1.540365047637926              1.0459586843468176
H              -1.6562356294965481              -1.0658107567936868              -1.8813770043738358
H              -1.406324355637663              -1.3819583124714652              -2.522882306648706
H              5.088974740857442              2.5861275864947415              1.3330752159176273
H              4.80456806656274              2.525285741642694              0.5859654465368822
H              4.491237121283595              4.809502926275926              3.0164461348635
H              4.7503733727822866              4.142696114909807              2.778573094625515
H              3.6037286742778907              2.0346022052548083              3.596794330574519
H              2.8721594902611036              2.063362946245025              3.433786010568481
H              2.879201919497105              4.278882610674482              0.9847646081003658
H              2.6137812702435146              4.469184341720914              0.32695839030325924
H              2.357841039658174              1.3430487816800232              1.0839325993502111
H              2.0226971051313147              1.755356554499468              0.6237447843093851
H              -1.5288463438673496              -1.304567309112307              -1.9260320477663744
H              -1.0880155420342996              -1.5293980543091286              -2.498114880078467
H              4.977881910357782              2.6351747033202337              0.8869264160410846
H              4.679323755249658              2.363536849608957              0.2675764498154818
H              4.2243713560203275              4.811271609524292              3.141112694758335
H              4.66808602518808              4.167122560462748              3.1177052746681535
H              3.565247981638063              1.8406507707848723              3.5076289637073836
H              3.0221476487205976              2.3761363715787556              3.525619607539068
H              2.9785622368789904              4.47052835814729              0.9632317827140782
H              2.7526728916141745              4.60393500805508              0.28773241685843026
