72

H              2.5682705448315866              1.7195644548147602              0.6759266556790826
H              1.9719286600869905              1.3139493202542145              0.7055984257287531
H              0.8894113105804942              -1.0578499902693754              -2.1519699460386392
H              0.44914697633929046              -0.604333030572757              -1.8098370225155855
H              4.701922495875602              2.495747435159448              0.8759537192928152
H              4.562958179272496              2.169593916995955              1.5787114326894927
H              3.619091311049284              4.646306339414191              2.7901815891017416
H              4.318613536551445              4.566387464141924              2.9742232195825378
H              3.42362243669265              1.9867613500798285              3.4328615264577906
H              2.858006796652803              2.1648899289766734              3.9074462462479973
H              2.869089099572153              3.702489862332645              0.4323907910545594
H              2.7409819271338622              4.316868191310953              0.037087378033047
H              2.3168968309646245              1.4043576932101673              1.1287682709883595
H              1.9808942173595243              1.7243720789385264              0.6244894557583174
H              0.8848329046992762              -1.2171027067578175              -1.9583534956689517
H              0.6775792680625047              -0.5578659885885203              -1.782154638685251
H              4.692646626487162              2.6583724307711676              0.9617718378878578
H              4.8762256910799495              2.038954668288978              1.2025237173135763
H              3.7672013675397893              4.42670145694545              2.9323802611441763
H              4.476325271740165              4.523019322450848              2.943638607147027
H              2.9895468952080058              1.4997330229083825              3.5033886825351774
H              2.951461609814793              2.0378533812597595              4.172440185706161
H              3.015473518621194              4.104260263099027              0.8751468363324202
H              2.733964528055823              4.010892977087004              0.1544457521312279
H              2.327610018946563              1.2833670740294805              0.9605532732367298
H              1.7142873763810245              1.6447205334024506              1.0310534165724239
H              0.8356390838480807              -1.136224198485338              -1.528464339288716
H              0.3575950456971648              -0.5515197287008534              -1.5491395123593796
H              4.608729695684271              2.4432692882326674              0.8612412048870057
H              4.89160532920508              1.9247692298899084              1.2580526676662733
H              3.907359316369807              4.160014289956238              3.2485865953965583
H              4.501530365879669              4.593714200262452              3.02296517767418
H              3.139079735925563              2.0368340715018145              3.533007383732217
H              2.6632401833001556              2.292871512879148              4.115756655825433
H              2.800346784699462              4.152242295678357              0.7570903267811242
H              3.0663780209148515              4.027076893842575              0.06618809686745027
H              2.3377196790324497              1.4724226502713367              1.3572909762218037
H              1.869062791577567              1.6554574624665728              0.7386149665220133
H              0.4502511039898654              -1.0828950351785536              -1.7074259710776287
H              -0.04662441538196597              -0.47544233265566715              -1.6109317223388866
H              4.4584404811280525              2.322968014067011              0.850282561149681
H              4.872151407677734              2.0250919927591253              1.3596502469504412
H              3.9468466993877622              4.411649540661338              2.8561992653172315
H              4.284440936317185              4.935261373149334              3.1811334875489727
H              3.2203021322082237              2.4463999452410143              3.426808918080107
H              2.885190443139366              1.8081311713977606              3.779474550154715
H              2.6272400451207796              4.10837142061443              0.4804627336737716
H              3.286302297223571              4.284350367953817              0.25735077049806315
H              2.481110092646737              1.3058023359702247              1.1293166565301067
H              1.9564420299898897              1.541637209260579              0.7363187793201519
H              0.7030279596138996              -0.8958018135068371              -2.0407624903968644
H              0.13891501956715369              -0.5298650885322157              -1.5804331615431275
H              4.495785128762956              2.229516308133283              0.6811195646136629
H              4.8523007473191875              1.859027566219704              1.2753201157551566
H              3.525932600366374              4.639907455436787              2.8814130269567326
H              4.173999298597557              4.872976740614587              3.1140726775289447
H              2.992818269210037              2.3057085485904696              3.0808232312654416
H              2.9099691051109953              2.038190635805578              3.7909336519614714
H              2.5718570469334585              4.112406873741545              0.6611346113356481
H              2.984985167056888              4.176988598995678              0.03840745284165771
H              2.564301500962089              1.9068836573443264              0.9117512392342492
H              1.8685237887135773              1.695771588837502              0.6703644658888558
H              0.9577824112537513              -0.9763736221448178              -2.0212892898098986
H              0.4182982831957738              -0.6785407463514107              -1.7296574654391963
H              4.710804239769394              2.3553157630472574              0.8761876487104514
H              4.994921584947967              1.9112000769465851              1.3988688634895157
H              3.564973822001623              4.768193224640981              2.780435839420938
H              4.313855322734022              4.726767849071653              2.858386786071555
H              2.968231753979361              2.2272085798878356              3.2167919365819317
H              3.047260073911769              2.2534309357105777              3.9837231071956505
H              2.7174520864697995              4.05094214503908              0.7581985983626433
H              2.8586373024706844              4.332235036957098              0.09206801285822168
