72

H              2.5337557809958797              1.7042834748660665              0.603601343789405
H              1.9886672001140486              1.2512169167753655              0.7829856296852237
H              0.8347754144484619              -1.096411442368999              -2.221097627178399
H              0.45891973877660436              -0.5587728402328102              -1.8404079843318242
H              4.641745003690337              2.4004080586790066              0.9461927777394925
H              4.608934185018881              2.1077675912290856              1.5973519690703728
H              3.55841403107695              4.655380432834949              2.7399700788280463
H              4.2275796621751045              4.4680949786691055              2.9822346187173854
H              3.3259122142710096              1.8978935283929985              3.426864460095528
H              2.9143656434558203              2.1318072434456288              3.9859870667674913
H              2.8004389035362944              3.7270615397560576              0.42286991260988616
H              2.7381344705700426              4.29810702893383              0.009585924328967044
H              2.3292640684325154              1.4303323399772958              1.251067553342939
H              1.8933242260802894              1.6551632333860813              0.6226477216121847
H              0.9528915299059478              -1.176015975486059              -1.9207196912339075
H              0.7359438417131748              -0.4973696064283904              -1.7240562084929658
H              4.751165674422338              2.6629050498978386              0.8909297889563764
H              4.858770537343715              1.9640545945505423              1.2999442611398493
H              3.819010045412513              4.369605149712496              2.93812713369376
H              4.529230740566988              4.5735356354861505              2.9196816856284498
H              3.0668707807306275              1.597112822652992              3.4678820550740936
H              2.9582983720851344              2.0610873464353228              4.105208476268994
H              2.9755247277190957              4.190118142993037              0.8222955314905444
H              2.7773114608783955              4.092159859348325              0.14695298043809593
H              2.2138970880143938              1.297636826148558              1.0243876315400273
H              1.5788237906298943              1.7172282134090313              0.9759551521789183
H              0.7571191468906687              -1.1419370021908732              -1.4994376949384158
H              0.33987202339106537              -0.5211813377031654              -1.5078760827027666
H              4.603448851402977              2.4703763887962373              0.8240061440394202
H              4.889473206752221              1.8550698191467412              1.1562535452682878
H              3.8793447142899518              4.247974091596579              3.279181607927173
H              4.488882100552074              4.602494076652085              3.0279143283164025
H              3.238541886759051              2.1072618622261636              3.57798757562444
H              2.6595090990939734              2.216114457328953              4.081614590118585
H              2.844048244238632              4.212034397010978              0.7397627160386674
H              3.124459677543037              4.070897661393257              0.08149367002239767
H              2.3410298771711253              1.355657722142295              1.2159370230061448
H              1.8950842500785312              1.73131530675531              0.7515212117487834
H              0.461494958330874              -1.086328196811092              -1.755867140158887
H              -0.05877452264839894              -0.6714971021561961              -1.6274678842210117
H              4.456469124326848              2.2015769598684565              0.8415132908162283
H              4.877024003660248              2.176722320982255              1.4866069674167854
H              3.8821878363840923              4.446043251920438              2.778056575841364
H              4.274982854093613              4.913795524356883              3.2568967911259454
H              3.0654231666921197              2.387514287943323              3.5500720685780083
H              2.7998431923872684              1.8391934640871583              3.8508847923673857
H              2.7153798345276305              4.113553447145887              0.5438202979908269
H              3.377280897062423              4.185404995476504              0.15556278225768946
H              2.538801989328533              1.300079066001263              1.1838924320728645
H              1.9169576735377087              1.4411544038339605              0.6943257799860657
H              0.7112596486598327              -0.9006818451546713              -2.0067360866279484
H              0.07434469131879247              -0.6164911635395781              -1.6267860653024027
H              4.6161622017697495              2.2948826247456138              0.7215059673573708
H              4.910063563383376              1.953562496130014              1.3001564806639623
H              3.5997882730742226              4.603497819195429              2.8161175499744906
H              4.198477992603763              4.93351935049637              3.09141379303522
H              2.8352087436015254              2.3890464358142305              3.0748879001709932
H              2.934205007446466              2.17148055471039              3.8462707828746354
H              2.540818608967059              4.0883673986988365              0.7283608932981107
H              3.000521080738256              4.13987456564699              0.11270218818822429
H              2.593483755269482              1.9008955651826105              0.9277405876120646
H              1.9416350244668075              1.673125815620306              0.6722991503098228
H              0.8864777690969646              -1.0174496219559714              -2.0645605951018853
H              0.2688549950001289              -0.6816679136421796              -1.684142647121711
H              4.598402003284446              2.4092169754429222              0.7396280673057093
H              4.978778940186575              1.9354771829171178              1.237647777400147
H              3.52140354792082              4.628891293715026              2.751057902209126
H              4.227881333715553              4.741006423554207              2.847659955143414
H              3.004053460824228              2.393111746084836              3.261964607644255
H              3.039359509649948              2.258858299546386              3.97534086505275
H              2.610239290554156              4.069312559802813              0.81065180642512
H              2.838632791478893              4.256191889813811              0.0800288187033545
