72

H              1.7307170571324373              2.0651705866440278              0.2255681384619945
H              1.487718743982646              1.4251677509210066              0.5238743456343454
H              -1.0721730476245606              -0.2921349197219572              -2.2012273146585195
H              -0.3457050364202661              -0.18241868600919806              -2.1852491566861536
H              4.308210876801402              1.865180965215261              0.9694368000662593
H              4.650907638656807              2.3713782678513673              0.5456084815478203
H              3.632437738548525              4.2321838839102055              2.7293287882591835
H              4.08100219121155              4.6016756885474885              3.212831983130888
H              2.2958158233049066              1.421294509036079              3.1413001125438447
H              2.767618338303638              1.905189682128159              3.42386357954233
H              2.571173054334631              4.493292559687615              0.33090101237705666
H              2.219681073955244              3.998278082264117              0.7813855074938185
H              1.7890449352460724              1.8801167189068453              0.12458702750235642
H              1.5416287048159678              1.3654832554906313              0.5597394566052577
H              -1.288373329665047              -0.20937694004438215              -2.0954919234655045
H              -0.5829468731752016              -0.10097694143874053              -2.3592182277932423
H              4.661238729353549              1.8333930159024758              0.6374409754113888
H              4.395891414784901              2.5263630342725802              0.7376424291694513
H              3.5000916433571927              4.310243891298329              2.6140357397819063
H              4.052163724529414              4.7433849573242695              2.9217524454177797
H              2.263854142286052              1.408705374006037              3.1263811861860606
H              2.69041534729238              1.9641912536014106              3.375773350366649
H              2.60936003708035              4.218840769425675              0.39900309144238105
H              2.0318928030817185              4.142921937453699              0.8373271732056277
H              1.5260723338142086              2.0433457498903063              0.20668142047022922
H              1.617530729552296              1.3183106625598247              0.36213179710600113
H              -1.3450401589446337              -0.014119854852800852              -2.2152427706770492
H              -0.729906366042652              -0.08507630785291785              -2.552979031720879
H              4.540395973440706              1.833043938594979              0.6699551775504012
H              4.480286425963179              2.5150514720200685              0.34000008182888264
H              3.5509174875539102              4.39368187670624              2.546827183024157
H              4.097800552525231              4.543896699805259              3.0406449656603334
H              2.263220209066506              1.3647951978633044              2.9086144880101714
H              2.8608791405761047              1.783151283733995              3.2604243972181983
H              2.4911945506978914              4.4130528394549335              0.3275705195563844
H              1.9866679564655865              4.50578340074217              0.8449881057310288
H              1.7780893692406703              1.6882576288052977              0.2538677926479519
H              1.612342441446372              1.180714509698777              0.7611831995768337
H              -0.8885729364830984              0.1042329923377532              -1.8971697955458735
H              -0.4231378953518607              0.15809970266835977              -2.38213376348557
H              4.085945722081349              1.821283872027491              0.6288426000499858
H              4.261939000905915              2.6028767625347036              0.6432213644286423
H              3.9222461378455256              4.130703422499918              2.565315864357409
H              3.900863382523212              4.371824202472178              3.2818142573959674
H              2.181609067381369              1.5478139030249367              2.955150511392128
H              2.97098588547856              1.5436820451009887              3.1249164348375955
H              2.2355528986490216              4.415570184841911              0.21833177384900454
H              2.4248083285216597              4.248485085510954              0.9191634396297856
H              1.6080167342224652              1.656734490969427              0.37351588513147066
H              1.4396337914608615              1.4962378260174474              1.0341240846296291
H              -0.9510901571193251              0.05617387019312116              -1.9743599856642269
H              -0.21002391552198532              0.18033539977521842              -2.221385413478257
H              4.833503949130096              1.8945032395422758              0.6924449109968676
H              4.627205374836176              2.546383421767198              0.4358027803307659
H              3.919085889414751              4.216340918114665              2.556094115355002
H              3.9957356480069612              4.5110990031843805              3.186650136805534
H              2.525000481899611              1.3110466571363066              2.8223959056523538
H              2.791290427527346              1.9138848393675199              3.1664718995634913
H              2.7240279822319917              4.1297842056026015              0.27004933265576814
H              2.4264156281240132              4.559646511158799              0.7871765627188301
H              1.7325678045165225              2.01092469847847              0.27166703788259783
H              1.4676485503147687              1.3878800416415313              0.6454485053080271
H              -1.0611608563779085              -0.05481564131099093              -2.3353006473910227
H              -0.3133802392331691              0.07372100149385319              -2.0452094447017686
H              4.4433719842125745              1.8899500418501225              0.6213256981415339
H              4.633548805107257              2.4296764802831317              0.2202858760576411
H              3.5565107656343735              4.015850167079954              2.9849419362549123
H              3.9353968840120044              4.632517297221044              3.2537001109635777
H              2.575256758594741              1.6457442022474003              2.76366645112786
H              2.646669285948234              1.9969265399518508              3.3876157289946898
H              2.7677113946732192              4.177144660679638              0.1415282079033704
H              2.2212357410751102              3.97376056440173              0.5480555852961672
