72

H              2.320869646587299              1.662616542461114              0.9278116217518347
H              1.6647219499561932              1.6088893831408624              1.2682530740143363
H              -0.006234881962575032              -1.094273247162699              -1.918579030601388
H              -0.7783388684811808              -1.1272911204718983              -1.7451565972800116
H              4.796909612380775              1.8716793546347954              1.1000772540061716
H              5.05500239949261              2.5798274312807288              0.9886875575887066
H              4.155344831482719              4.885801758038529              2.614586740496451
H              4.109890159657733              4.662882231537872              3.296886753055203
H              2.316626659610108              2.1881354530185133              3.8143424739003953
H              2.8647061319302525              1.9805826924910737              3.4119453831762327
H              2.85196612977888              4.291618273889919              0.3156278133088128
H              2.964714648758726              3.6176915407090404              0.53914957925523
H              2.281192464396253              1.9373368196164271              1.333278794326521
H              1.7627248916468399              2.068822989099047              0.7808271090506699
H              0.08383190160078793              -0.9870401417470369              -1.7965543737179808
H              -0.6929205276235276              -0.9640729392360325              -1.7345546503093472
H              4.545455476880773              2.0741643281508484              1.2129351148330632
H              4.997406725613007              2.6921202827218926              1.3250841198797536
H              4.093159804431061              4.9329172557128524              2.38873616661989
H              4.43281371557967              4.845010637746021              3.0898600174837663
H              2.540857136796194              2.3509726017902266              3.6376882212375317
H              3.1904970002894126              2.2447409441301853              3.3374487538178856
H              2.948032013381675              4.448394760751272              0.5490118933487219
H              2.960519857922431              3.6994123799277103              0.6308367599825768
H              2.367640021564501              1.5587190994103115              1.1028568650300692
H              1.8081218725681387              1.9262055609116568              0.7873294729935187
H              -0.03307987388563621              -0.9661766517657997              -1.9498804888432157
H              -0.5997882623355066              -1.2833041226753057              -1.77656548275268
H              4.594378171694069              2.03416955938184              0.9992610762632452
H              4.807036224479914              2.6833767266614585              1.206387914712635
H              3.802263712964708              4.963505604637168              2.496347032242225
H              4.2569382058397975              4.702309306214464              3.0045494890556568
H              2.8376226969617324              2.5059075645782314              3.610535822588146
H              3.0631362312654398              1.8249345596783437              3.125078363737261
H              2.9739881407389994              4.355379605251303              0.12333028699111123
H              2.7586987168442985              3.8346770992652592              0.5765858593178225
H              2.3214077916708433              1.626774742607933              1.0130197397134697
H              1.9038973592915363              2.1698268913386167              0.7053184378293446
H              0.16931504251397297              -1.244186779379631              -1.9688956630204104
H              -0.4367215313441367              -1.6005378834867414              -2.086708227940164
H              5.04969674322784              1.993971343937322              1.3679114053005679
H              5.278987666837268              2.765424974003708              1.360791002019181
H              4.025016334865489              4.972225657417091              2.49927003703942
H              4.199125405094989              4.421735776790383              3.0169030951927853
H              2.415007249951571              2.316598776811057              3.7199420239525427
H              2.899857735031162              1.7064988439329587              3.413837714917243
H              2.7897434808654133              4.4367906473281975              0.19499581724232093
H              2.9353854562541146              3.76623378161937              0.4456753393614165
H              2.1565663925512535              1.2225292967036494              1.1469136110256133
H              2.0790997520093164              1.9542003220197381              0.8472967834950894
H              0.07190249043205409              -1.221997063471912              -1.7129173357372234
H              -0.5864078227094345              -1.5368567912822066              -2.026665791303451
H              5.094775211251694              2.190753989843379              1.1692781016371765
H              5.061555882719726              2.909695806223685              1.3531554390871967
H              4.401252845940125              4.5959737977680195              2.476458132884777
H              4.421286331471255              4.689584556644776              3.2762918094997797
H              2.293472632674751              2.4685378312905466              3.536893519952169
H              2.9566183883471813              2.0981768081687178              3.7813573943985386
H              2.6883976165086345              4.483317275284517              0.26499292691824344
H              2.80256114328123              3.7302825941770625              0.2451208034035323
H              2.3175277193829484              1.6099307881233273              1.047017053116728
H              1.688235252397154              1.7104141470375975              1.307887422386887
H              -0.1730189275604307              -1.315453643816033              -1.885755460790272
H              -1.0074669004270231              -1.1419543877907954              -1.8726765852340408
H              4.724886155015747              2.395189884626473              0.6554296593345873
H              5.175194375764684              2.558261174148049              1.252807237185924
H              4.258985334578769              4.85070010212074              2.545762147631638
H              4.36458054655977              4.83362816000057              3.226412272736419
H              2.4025553626873783              1.73288157256204              3.8354904200426043
H              2.9722260886954097              2.1207914654779167              3.474026239003496
H              2.7187298206675576              4.4705874144182385              0.2784001781653159
H              2.8337920384833333              3.7802299674367057              0.6180172812928556
