72

H              2.2331315843009873              1.6865050714821639              1.1334981586461579
H              1.9959315800363056              2.065542692951635              0.5761856565823091
H              -0.41959929998649315              -1.2425467195091888              -1.7125943275901752
H              -1.1383252158254156              -1.5375589074133384              -2.029909420410023
H              4.862801475160118              2.203825968653691              1.418389843416209
H              5.0897222655083905              2.9625158030768057              1.4794740494585916
H              4.5145867805551925              4.968694994543043              2.4193914942230017
H              4.418572227341346              4.475016112864776              2.9212226601599953
H              2.6151675415949343              1.9460777102851432              3.8874501141535154
H              2.8993120395355017              2.19804328032954              3.289960605222605
H              2.984250183922616              4.441836517543049              0.10813662449372909
H              2.8511652317020437              3.9666490101122607              0.6374283721503108
H              2.442593174559192              1.0600066996836675              0.9215316647624491
H              1.9229095111363748              1.6777410337644765              0.9052075903217954
H              -0.5093252941543077              -1.1550293952465487              -1.9946312214103188
H              -0.9592436747790926              -1.7300892136846724              -2.0559358918441095
H              5.066116036150479              2.25344781574514              1.27911460151835
H              5.202911883623793              2.8880387954309312              1.0750628909526438
H              4.41445753307509              5.018596477615154              2.6155939299204745
H              4.1584125069526205              4.406204664307737              3.0135625254974157
H              2.396814201860057              1.9637868103728053              3.7983737726535582
H              2.689520441004262              2.1941045465845503              3.264614826448605
H              2.790258330756816              4.199603084248187              -0.05046438915216156
H              2.5943895490461166              3.9109186348427767              0.6328688795137728
H              2.376079731928009              1.4011117823706745              1.0478943401202512
H              1.794055003577259              1.7963740509187711              1.0274115628266458
H              -0.3618549766472883              -1.1688394689756108              -1.8339004728596198
H              -0.8292452584400457              -1.4825020968340226              -2.203978479960485
H              4.926726630187934              2.3541552997138147              1.3571058084609142
H              5.287185357006967              2.854767802451002              0.9842496130186017
H              4.360594858388299              4.916474963863246              2.511627672337414
H              4.3230456575576754              4.547363482116342              3.133817484810798
H              2.396977315592875              2.0143106928864802              3.823361684909297
H              2.892051893830294              2.340328797052628              3.4139036370513267
H              2.5993513829927677              4.429235163117105              0.4738416504873097
H              2.891034646964019              3.7783626085543456              0.40455571104830107
H              2.4776998960473637              1.3928568092347378              1.0427566219014839
H              1.7500222085779302              1.630269111442309              1.0662317424841032
H              -0.3316059865087835              -0.9749800320286229              -1.8512623708322844
H              -0.9067500753421724              -1.2236871251630261              -2.1277901340414718
H              4.581738705621021              2.1267587423414156              1.0666195640436464
H              4.910127019995987              2.798247286066338              1.1515423664710405
H              4.157602692657189              4.862799694055333              2.4635458466710762
H              4.442403155582887              4.687835516138387              3.192958090393538
H              2.7611925517592453              2.1034403798982253              3.6999348078225305
H              3.25152461382545              1.9208148708954493              3.2111266753934298
H              2.7981044669848254              4.395652902237196              0.4704915204614424
H              2.73936358499935              3.7102080485713644              0.2640592425742361
H              2.386591078652376              1.8212586356914888              0.9078077825293943
H              1.7467562265904353              2.095849117679946              1.1773145012590183
H              -0.0025598859927347425              -1.1193315385637765              -1.8675366912183458
H              -0.8083913828791581              -1.1056685197790181              -2.024977574266017
H              4.4487010914116425              2.108186418209708              1.199752063734351
H              5.106404156343636              2.556058107277423              1.2319178311510917
H              4.086135852000804              5.0406817233450845              2.657611264417583
H              4.47365309168839              4.443929258259905              2.993354955330739
H              2.8840336656524648              1.6801889901390823              3.513182017072486
H              3.2307033099709215              1.7559267278137538              2.911093884181001
H              3.1457827131490097              4.47932436384889              0.5461755845809991
H              2.821927031923911              3.795908625178128              0.4892842456558003
H              2.0295230692329675              1.6216443428364347              0.9239133133174252
H              2.0130953041825723              2.321897601122369              0.8852021785221571
H              -0.021191746474426745              -1.1446688975774009              -1.5146561817263478
H              -0.7023641645835189              -1.4079120427193526              -1.9175796432926382
H              4.818535670691341              2.153124098097288              1.6084202647526102
H              4.857633922309059              2.6013751615580802              1.1081066629266736
H              4.388661607848567              4.774432380413435              2.615427255872542
H              4.432557733393403              4.340595183113463              3.1456168939181297
H              2.7617328608655236              2.424793279657342              3.5850453630235695
H              2.9618078333615743              1.9252343413427393              3.1662280445057815
H              3.258938943651403              4.553272414007783              0.36249675914503127
H              2.9557022892987144              3.8271000185686193              0.32241145680552946
