72

H              2.3512522061207983              1.0983947258887534              0.9568363165708155
H              1.9850079138991195              1.7189272240007278              0.815060569235365
H              -0.326139233970354              -1.145013085959172              -1.9193397270138244
H              -0.5065748853921841              -1.6703206369372385              -2.348615603486283
H              4.821550443237431              2.393301659618422              1.4882052855000707
H              5.160667131240389              2.595587565443035              0.8445244717834114
H              4.134997691859098              4.844905165899201              2.781030598950516
H              4.29048043825502              4.123397253206886              3.0475701757643874
H              2.876972039458693              2.07751332974592              3.5308165918740215
H              3.149694061516271              1.8279215475983461              2.9829618057690035
H              3.072236327165021              4.518668144666505              0.23164136077642672
H              2.606616531851902              3.953404373508188              0.42366872799853156
H              2.057712313431307              1.491125056077047              1.0064640763025452
H              2.0887447626088194              2.160320864793727              0.8705982047731622
H              -0.46843051266055546              -1.4200773664218052              -1.6238305162790228
H              -0.8124412061954767              -1.35766538073562              -2.334076390459604
H              4.733139333738091              2.1746342899270394              1.4804818096108623
H              5.120109403642202              2.7831650003157815              1.210352647454462
H              4.408240964847209              4.666416068443518              2.5839496517280742
H              4.617935538163626              4.304995105791887              3.171960444729661
H              2.8825527728103735              1.9027588547765946              3.774484434372325
H              3.220699074513369              1.8459688606617846              3.0915109131897336
H              2.974813956698261              4.69512508622593              0.489332371401305
H              2.9646053398212144              3.9780382813611497              0.29637172781550564
H              2.3096313118719203              1.3531880574458224              0.7227349993302795
H              1.9202524859113705              1.8862905626283752              1.1202146286943488
H              -0.5734076260626845              -1.2613666222596105              -1.6544668753384317
H              -1.2793733505713638              -1.4334563885672396              -2.1216255065661622
H              4.789676194910405              2.042883028593523              1.2557065985658882
H              4.989315485416063              2.8476110295528474              1.20431701996194
H              4.665898864411872              4.772627431494589              2.6063685051523526
H              4.515938566563026              4.258988662256981              3.163985575192447
H              2.932267788155349              1.688791060205454              3.7763381614370797
H              2.9284306999722878              1.8760403393541711              3.106534206419325
H              3.124406667487291              4.577464566518942              0.25654062883030143
H              2.7557756618387668              3.9310169162812203              0.40541197990144673
H              2.1262961513333636              1.5197883075893643              0.6638712430861006
H              1.761597873125175              1.951896399061429              1.136629170478434
H              -0.5926117322131695              -1.194483873462233              -1.6173861675514287
H              -1.2726358651756244              -1.3988741833348586              -2.0265485022301464
H              4.939338548161248              2.3490316065495582              1.5050090824748266
H              5.218712483345901              2.6542973998002535              0.9734399775828521
H              4.653603512302398              4.9347468613386924              2.7288828091780393
H              4.441162582979151              4.292211677984892              2.917138675615864
H              2.698183029855204              1.7395140703134335              3.7417557803114736
H              2.6956197287103416              2.2736116567307074              3.329505419752142
H              3.087248095078174              4.672252389199362              0.5381619223455616
H              2.968659757269197              3.8653893127558745              0.4441240057301293
H              2.253551386369232              1.204720409355221              0.9051121688632932
H              1.7432963477775727              1.6145694715848338              0.6919844812333682
H              -0.8252369551591577              -0.9697409158129197              -1.6865827718212012
H              -1.1311916794018957              -1.539072853994637              -2.0676665649861294
H              5.056261188753262              2.383278042340319              1.4957583928162979
H              4.968716601950808              2.7852475943922697              0.8770037307188062
H              4.467500018607809              4.906793483997609              2.4933458471157692
H              4.332886977480458              4.444263680178119              3.014203089863528
H              2.731328807337527              2.166062744577134              4.016608666507206
H              2.860056161726579              2.537597781647762              3.4033831122238354
H              3.0750925224560954              4.561394703208846              0.444184536585762
H              2.733162556087845              3.968827195814779              0.194705154094161
H              2.483702892227001              1.3380614104225173              0.918835246524675
H              1.7519740812633313              1.4136316893534808              0.6817269243297999
H              -0.6793528240067294              -0.9876525181481629              -2.084722512734532
H              -1.0436402619371778              -1.5138941004411754              -2.33091895270087
H              4.764861708909043              2.3401660073138726              1.3587156495534252
H              5.33730631311512              2.808801693393402              1.1387716882373418
H              4.080651027680959              5.186971640571596              2.6028593495233996
H              4.310372154761638              4.409430633737613              2.6665265878305133
H              2.8783862915016627              1.6472933529590341              3.676012849134755
H              3.1478167644523367              2.1346815192151465              3.2298074608371152
H              2.989786790665199              4.409310309986247              0.2705996626376202
H              2.483828780790442              3.9629775821740667              0.5498360440771412
