72

H              1.849340883197598              1.3540855201892308              -0.31783709797666
H              1.308910922990514              1.115880682397638              0.0838496186588177
H              -1.5054539908028495              -0.5200961067282016              -2.4046222666213914
H              -1.0373318911564149              -0.7134489702255011              -1.9738615202699352
H              4.177903919523868              1.57028825106623              0.5995810849762673
H              4.420618563187586              2.348782504524796              0.626792284711457
H              3.6815399092922196              4.439671617195207              3.215727833070548
H              3.8838669023434833              4.415511656822152              2.4367684344876026
H              2.0820984229564528              2.10892874878487              2.6635421065755134
H              1.827560319661531              1.9286563510780568              3.301435706475939
H              2.127497519396099              3.7486236084190603              0.4991602979971425
H              1.4457769379065162              4.120676240440445              0.5774056813710531
H              1.7032366476689196              1.6240920130531513              -0.27296388575356506
H              1.0713113786207786              1.2413108134814814              -0.11947128096162653
H              -1.7930819908965252              -0.5963010990272667              -2.4753220910337492
H              -1.1603651637129506              -0.9363249315582465              -2.1421820187720466
H              4.002316071806578              1.7356714944829235              0.8679304798805226
H              4.50408509233164              2.2942360128413566              0.8794401790334438
H              3.5199884034045454              4.330712624815132              3.054170038361069
H              3.963307888728442              4.3850299059820115              2.425204407056073
H              1.6725978003334174              1.836900855128937              2.4447953363462194
H              1.8981739786610285              2.055473286415977              3.154489102339525
H              2.075607984451544              4.1255877142234665              0.6358455270563248
H              1.3745150216954423              4.140910887485096              0.8496093226179103
H              1.7615919670996096              1.3203731182880918              -0.5407171348521277
H              1.3781569545690944              1.405324676334199              0.06493248087743876
H              -1.707280140580686              -0.4153438796405798              -2.2458390664466172
H              -1.014047519799968              -0.6467060921509679              -2.2607690220489194
H              3.8415889480406586              1.7445040915847667              0.8309940163922422
H              4.203844897346195              2.442541579560452              1.1235763922825066
H              3.6614950592669073              3.980695303860891              2.8616063861018084
H              4.023456397986906              4.59990218041972              2.499572500525372
H              1.5252114948037745              1.8648065456675191              2.5404431215078773
H              2.1268565134791984              1.920951116262003              2.9604911126914675
H              1.6667768274482047              3.7194781641309085              0.4647108121079447
H              1.6473785910681429              4.0242211449760115              1.160939949584852
H              1.5947762567240233              1.479698848393764              -0.36826122152044244
H              1.5583943060732302              1.142556730626148              0.3256047882204919
H              -1.5922974112732486              -0.27880418673090385              -2.215941438662768
H              -0.983836152297459              -0.45690744503614544              -2.0007426066374885
H              4.077015161194746              1.7577534312357648              0.5389941201401119
H              4.345833420513924              2.4662117536705286              0.595254680841799
H              3.762916480625529              4.151413683086127              2.910805705056995
H              4.213101442837827              4.481228215275892              2.4274112146647977
H              1.9920707524855945              1.973583958933969              2.220499366199382
H              2.010023214337226              1.7608442766045116              3.0069121862387322
H              1.7913702720549844              3.8089304767263017              0.44005966265477386
H              1.7523520478597145              4.461514307590252              0.8279753621564026
H              1.891875616781087              1.1638411265931246              -0.06401865813094704
H              1.2686762866202026              1.1032534479603615              0.2180960783308755
H              -1.50759049144072              -0.3130653734898835              -2.4131438624597963
H              -0.9099970823405861              -0.5505062864708294              -1.917638121003517
H              4.052164005136235              1.848581465584318              0.3684849887790586
H              4.497561585275853              2.1388322769532553              0.939140835341208
H              3.840688973975488              3.997003052998201              3.3855777485873313
H              3.725488551101636              4.320694496899012              2.731593916889403
H              1.9701931210830177              2.393961281525266              2.3098404641682793
H              1.912811041059054              1.7709304219849502              2.597141548987606
H              1.9730165841629812              3.8687659309209232              0.07931781717291018
H              1.7122431920318928              3.940517275152562              0.7041162344338626
H              1.6579870962541647              1.3817272473262328              -0.34287327830224174
H              1.5888797845754983              1.0806803822683995              0.3244162545957366
H              -1.351359605458136              -0.685383318829193              -2.4064887368987318
H              -0.6291068000678812              -0.516584491168535              -1.9757271001483447
H              4.360498284783923              1.6594420674333819              0.7912557815614502
H              4.845689567965405              2.2168775585397715              0.6438752327870539
H              3.724063622875917              4.100583699797262              3.183830170608209
H              3.980921592228932              4.515260020917917              2.6200224996023116
H              1.562596503750562              2.0405091176418226              2.575033046827768
H              2.0736587364376717              1.9188922504404424              3.0437585279733677
H              1.994433939792638              3.7797761569556183              0.09762155936042756
H              1.6957973485721376              3.975370587213708              0.7641729517282811
