72

H              1.5587549331345707              1.672771969510319              0.15700320446516883
H              1.3085203526726685              1.2828524507582348              0.7650567081882619
H              -1.5539148761658468              -0.06047963455640794              -2.174362588181335
H              -0.8739039112659315              -0.08854721370786267              -2.0600795688572453
H              4.46495888124238              1.6840984416069935              0.6213777971604367
H              4.533697033633289              2.345505013239058              0.4667471951440344
H              3.415961783736881              4.058911297170668              2.7771564992639766
H              3.892498977236133              4.513164198410348              2.8903810110678814
H              2.1856069887285163              1.7398045156548838              2.7236060769003094
H              2.4945731251941874              1.6782187193260107              3.4269226079067256
H              2.413728162901592              4.03195989507967              0.35699057702609627
H              1.9927946845203277              4.296361754846511              0.8319275224723097
H              1.3825557997404256              2.011033368021695              0.30833092338279255
H              1.3134954844625797              1.3432469156434987              0.2817244908423745
H              -1.3803281110355858              -0.26948682405535496              -2.3541193541373606
H              -0.6664549401244588              0.03572162532440122              -2.2633044905025246
H              4.126074530854851              1.9323501125980798              0.9613835183513562
H              4.4454943618081835              2.2360539090154568              0.34817161890533055
H              3.3678731436434366              4.300448919941704              2.5953810325158493
H              3.930301761921187              4.494328001202325              3.0000571209973734
H              2.0806912505483517              1.7496584641334159              2.748946629715594
H              2.6775204572515627              1.5957220992857506              3.237624337934259
H              2.4316566715503396              4.272033228331101              0.257560984555763
H              2.0201596728427287              4.352824182851873              0.8549377582963401
H              1.7385396729663427              1.4986978058124525              0.10843577448394809
H              1.1468851713098427              1.323847675858704              0.6249309134220431
H              -1.2133532079983025              -0.1878569909068982              -2.246572571938089
H              -0.3616899798869725              -0.003920236987326907              -2.405135725999028
H              4.250303046866602              1.872063025105743              0.8277345344899841
H              4.32430567502814              2.569333773237262              0.8499426386456344
H              3.500691454852008              4.19231127054965              2.759577501276559
H              3.8752821281709062              4.841471343784662              2.8089405291990084
H              2.1284496789953606              1.8885117268740743              2.644171575714832
H              2.7390080762938234              1.749018412280761              3.0004334791065905
H              2.535234345161735              4.085649029093377              0.27492349884370665
H              2.1475582035635994              4.190454616081645              0.9212331878121351
H              1.4205847864794197              1.914872532335326              0.10751705014428571
H              1.4238933727653613              1.2364948410680185              0.4875472853198373
H              -1.1513397133656091              -0.17363441940212074              -2.3782854000011535
H              -0.4714524574189563              -0.18148250829576648              -2.5100120876608782
H              4.861447244057055              1.8834274972830822              0.5848788422659932
H              4.729659181784978              2.557393449229246              0.4655275175177912
H              3.54136194690456              4.236801449595779              2.819649171172662
H              4.041512288315037              4.790482311685644              2.7385208846345224
H              2.530354276815459              1.5395000263491891              2.5567169700477534
H              2.2850123977535906              2.216638548015108              2.9081108460664438
H              2.651752913039178              4.070085050157934              0.40590407921881877
H              2.008283401470244              4.266026675440047              0.7098762917415284
H              1.6308735300283383              1.8180438006906916              0.3447540269210786
H              1.601157980980813              1.0660901009860142              0.3145080676643179
H              -1.138262522958452              0.010656375454646485              -2.127801657320578
H              -0.4329322641338229              -0.285593149408317              -2.2770747972598384
H              4.16160969620996              1.8431917640288773              0.42993859733864154
H              4.553484904740528              2.3829060686339463              0.5436510805159481
H              3.8093388235843455              3.8513760308620726              2.921637526031947
H              4.030728182734034              4.55058563607771              3.1226117454083755
H              2.320913375318607              1.6157099026436355              2.682585159873977
H              2.4877535787637064              2.008865191034787              3.1643439751107914
H              2.2611505112300794              4.271155066962718              0.3218740125182951
H              1.970118444917874              3.88034018542247              0.8534683735988856
H              1.4841146354657697              1.5882110468073574              0.2482355633737999
H              1.5674953425218705              1.3440423718996355              0.8939720279501489
H              -1.2659706707579554              -0.1240010477435488              -1.8434698832870007
H              -0.5181447996094521              -0.24541582661026676              -1.99862356510226
H              4.503023221382028              1.6705429056537289              0.5922696765903402
H              4.641951649739743              2.396675601093818              0.6145746116098861
H              3.834338407082441              3.9550349475801028              2.572898504468516
H              4.167335206572516              4.4193073728483645              3.040195278470161
H              2.0139345753941584              1.3059638937049678              3.144103400365474
H              2.609301164232819              1.844632669010053              3.1978426933284543
H              2.3016110586280107              4.2995435706792495              0.39114299534021024
H              2.0610021225081643              4.271307913381588              1.0995629894588916
