72

H              0.8620971496693581              0.9806379152321241              -0.44956771173786425
H              1.4940654708851104              0.7939630178808528              -0.5640125706380876
H              -1.2375407660020807              -1.9581822608539807              -2.4637210253541237
H              -1.5940006784873595              -2.341378584795396              -1.844522816448753
H              3.491641477917066              1.1816802936383695              1.2021219059850616
H              4.184996228086591              1.4641120233789109              1.1902738341136274
H              3.8419771803475826              4.138556987323441              2.410942607201023
H              3.7936596276273264              4.004884697644048              3.1580601696322366
H              1.3866157876520961              2.1029750843499215              2.819673278911178
H              2.0026222523276402              2.2024008959678754              2.410820382147552
H              2.5102563834544425              4.0014397446565              0.285654638506579
H              1.8681133220984765              4.068054015032633              0.6794161320634122
H              0.8763180850919636              0.7674376333314799              -0.6816144750798641
H              1.2189543964266627              1.1547315120701505              -0.23978825638142254
H              -1.5341539388311796              -1.8466044618744788              -2.2789296242353814
H              -1.7058118956198984              -2.3551039420729896              -1.8267040869115032
H              3.6452129564668407              0.9993994586062835              1.1122241650603302
H              4.017562509334628              1.6852117327786846              1.1174582850225783
H              3.649265079121807              4.248397818134099              2.449079053323667
H              4.170933669366116              4.259302834726212              2.9645275276776086
H              1.65531631466969              2.0911768776444264              3.0451278715637287
H              1.5982470769221053              1.966033450936389              2.309035760455047
H              2.4916304162810383              4.2149461681160245              0.6734772918147053
H              1.7376829973796257              4.080832936043376              0.47958364950758026
H              0.8637011807872661              1.0496117770818079              -0.3647171137648856
H              1.5157924007088759              0.6912664383328625              -0.4382013984449237
H              -1.6672424784924926              -1.825057852712047              -2.3612144802143864
H              -2.0109863396056515              -2.151366791387177              -1.8362948250605982
H              3.514046340291763              1.1027959129922098              1.0851258658309753
H              4.056326974845889              1.5655278209645278              0.9127064678604678
H              3.836224388934593              4.354667236252762              2.4814956454382022
H              4.107976174978548              3.974809531163039              3.1246599620722693
H              1.6308049337764037              1.9263039197748586              2.6899519462462536
H              1.8712061440818344              2.3068788096988873              2.1582956052888407
H              2.459034270060749              4.290456643768268              0.4219389384048253
H              1.7606745807639834              4.310732707208986              0.765094311333072
H              0.6950653474675136              1.104718090255979              -0.10679345967388727
H              1.33673000496204              0.9175809064910796              -0.39909059816663595
H              -1.2787537415449353              -1.8002928966692966              -2.1751940413070776
H              -1.8285743363399178              -1.9030269149414338              -1.6266950537795473
H              3.8499343431642448              1.033051240501828              0.952354532015178
H              4.017171266712963              1.6560248910919295              1.2727420945925945
H              4.054733033846927              3.957248806099954              2.501800556267552
H              3.945963206145837              4.072491615060723              3.21952630038453
H              1.2063136642282535              1.9680840067912693              2.9312474645043793
H              1.6544251723505508              2.1764463172530624              2.2154287305316123
H              2.3169386979498268              4.2842945649323              0.16720139879306312
H              1.827219613784652              3.942603834978606              0.575092364410594
H              0.7444752139477937              0.8517081202658078              -0.3891904838013418
H              1.4930633218637996              0.9799830032620925              -0.12141428022352542
H              -1.2831247189299748              -1.8709329414942              -2.2627324966438738
H              -1.7715287614515363              -1.881251696741178              -1.7885333638617327
H              3.9306786068946407              1.0964987205781134              1.1334249455767307
H              4.28481890208276              1.733347228347756              1.0057123263564758
H              3.916778198465716              4.09585750152091              2.3934924066379257
H              3.9729194856212056              4.261224437493992              3.1319476507018553
H              1.4229940179539913              2.1417959329350476              2.8449679113229096
H              1.9911515652327876              1.992324852986356              2.4122794505715794
H              2.679837619960053              3.9455103486494743              0.13908320339058675
H              1.9405465486124078              3.9219719034998417              0.17003477407940634
H              0.8326231988708698              0.7037394051769736              -0.29128061901394076
H              1.190624379454065              1.19329724503909              -0.6928659809852198
H              -1.3455434457098834              -2.0837026617923065              -2.4638688999622356
H              -1.6787065474373724              -1.8394269193619792              -1.8877362183882638
H              3.7139834673427203              1.1205120549949854              0.8514878709055748
H              4.18681409142803              1.6515454769381528              0.8559120001976142
H              3.5734849737491285              4.117095519113175              2.4364951615246855
H              3.754774176935473              4.022887754169498              3.16198482071648
H              1.6680625110735998              2.063173262713039              2.933328579710376
H              1.713365694946506              2.2669177975699344              2.303754957645374
H              2.5932685241923528              4.007769202933674              -0.12746986212384392
H              2.0926013878148266              4.02854935674292              0.4092231416812643
