72

H              2.2220171944492635              1.7202700206576698              0.21211703159273085
H              1.7317740564551285              1.7378556526280438              0.7806883331849703
H              -0.6607332966981909              0.11447502168273495              -1.8226700456081224
H              -0.1974520517229032              0.2523392873442956              -2.5723626426630903
H              4.390859111722196              1.959722041529902              0.9457457284079462
H              4.334164310493067              2.6107401998265694              0.6624121408317712
H              4.175493283602294              4.369848883953748              2.7246181312994966
H              3.89099960983201              4.243166862667675              3.445169824920411
H              2.9554632044246474              1.0741510532415606              3.1324285925291324
H              2.9189196769358126              1.7832494971157877              3.4238104395682765
H              2.561060340758431              4.50778431931071              -0.05484324594272869
H              2.5325213226489556              4.453569681861054              0.7140303848838381
H              1.820230869569978              2.112764869790673              0.3628855585897341
H              1.940508721657372              1.6375111469293118              0.9776948568714872
H              -0.40238607751053973              0.08766140959969206              -1.8437428367432784
H              0.03199144572005505              0.44381153183678773              -2.205851707921255
H              4.943599044856886              2.225100959304708              0.736300111904763
H              4.3965039339898              2.5135412451738226              0.3847306552135274
H              4.266752221036755              4.6078121461080475              2.691974626329557
H              4.0140334024110285              4.14760946565278              3.1955240232215276
H              2.9521905020924692              1.1485631440525386              3.3355911440579438
H              3.029565644400776              1.8310288701866415              3.285275968638516
H              2.912027217066647              4.388087544446488              0.019646434411064586
H              2.6898187199523242              4.501914180763087              0.7131589217352371
H              2.159873471555178              1.9478881348179469              0.491469233395798
H              1.4985229525204953              1.7299936218363878              0.7074172210095359
H              -0.7403242852113483              0.0376207340408447              -2.139137545962353
H              -0.08108768785004211              0.19332094591805019              -2.0535314314898243
H              4.544578605127929              2.0659194022281664              0.7999580941768185
H              4.632180093783164              2.5524229467348274              0.3028472062583894
H              3.9027590593576584              4.2789906355422325              2.945067277830669
H              4.038434009953434              4.527732774376593              3.5800301562013743
H              2.7853913314005143              1.633962938659687              3.0337177136729467
H              3.3506618243534594              2.0219680099035795              3.368630920653784
H              2.904022407405657              4.558232384313874              -0.06508920248776212
H              2.6211035910104563              4.224873007945384              0.473612254439089
H              2.2892859300110757              1.9546879624689724              0.20516494454339124
H              1.8278115865927527              1.8043990992546963              0.69244804864753
H              -0.7417699667897948              -0.3925980219443941              -2.0982360567638456
H              -0.10920037142537374              0.026741495165339666              -2.3065070416731284
H              4.518142874169089              2.066754655730282              1.198013473547278
H              4.590962662102196              2.480658287668047              0.5371593865221406
H              3.9401987028496785              4.414211845317814              2.81851678036948
H              3.9834503227215436              4.494417971817656              3.502708676106856
H              2.6555180544157593              1.377082312042996              3.3942014629186636
H              2.8744052897979935              2.09079124492603              3.247584522349225
H              2.8804430052969376              4.633020121543588              0.09870575252778761
H              2.5147035468161105              4.061418288289292              0.44693680553503495
H              2.081756721384954              1.9813918349271946              0.17346388170779484
H              1.9906977127773609              1.5208125828873165              0.7267383655144367
H              -0.8464804718714345              -0.13469017746610187              -1.9696376382900922
H              -0.3088211338839969              0.06643793832057811              -2.4260660821718525
H              4.798106595802537              2.0128391677146795              0.8716621746884577
H              4.542603253938095              2.5273839359597345              0.5207954543415526
H              4.039506253666146              4.6918501218832676              2.6139183826140733
H              4.049004463204714              4.504120202908729              3.2971416058078824
H              2.436098939636155              1.554661691888618              3.388193075809304
H              3.2068573304043886              1.7574465371127517              3.35518792556162
H              2.7571295697097824              4.518429318041519              0.21168564476102777
H              2.2662114023157716              4.325030399579888              0.6741338371379418
H              2.0476974824482013              2.161785629503917              0.078656645286853
H              1.9122321619535056              1.7636911271439624              0.6969120161756178
H              -0.9657829562012066              -0.04491004719103251              -1.975094713486351
H              -0.4207741852526209              0.15344322557528806              -2.463508214453268
H              4.700081659356961              1.9923061160688273              0.644905203905493
H              4.447490791863547              2.506826137202247              0.23421109706113102
H              3.8759783496802425              4.618959990857667              2.677433127923926
H              4.171582608766543              4.368437101459288              3.2798595669845936
H              2.5833622930227866              1.4716879737370714              3.39001949562406
H              3.2215731074842773              1.574970659152629              3.3273146627138095
H              2.6500376260348237              4.5669726916175915              0.04349765581713437
H              2.222410771494028              4.6035382362190935              0.6498542135537294
