72

H              2.148361894399826              1.5361870617723998              0.9035413567043132
H              1.7334712019192768              2.010540688773155              1.2959777916171242
H              -0.16054386374986837              -1.1245529722582035              -1.7098413900577278
H              -0.9235422174367324              -1.1314286471542083              -1.6244200930519168
H              4.777108831888711              2.0429159420795924              1.0859641407764298
H              5.068661036060025              2.7174002657875462              1.0099695380361702
H              4.351698742066884              4.934874094541524              2.6018755686465767
H              4.399852120038063              4.736288808569876              3.2914141855970094
H              2.344363802601625              2.057797983650682              3.756055296396512
H              2.808571853637466              2.363406213425991              3.327891925637954
H              3.0289262295769857              4.349237192054812              0.4238924883281008
H              2.852088468182118              3.6947012911858472              0.6762399384373121
H              2.3543408078679695              1.9281303019915714              1.1994356769864238
H              1.7676412168792544              1.8565141503548084              0.7213387276242508
H              -0.3036225151343084              -1.0081705723286833              -1.8001137742134243
H              -0.9714121152932077              -1.3176117209947602              -1.8232784219478393
H              4.668785686921045              2.1262807590012605              1.3102975450700305
H              4.932234808142256              2.821500696812435              1.0148030953588743
H              4.241316533354783              5.0615278576831235              2.3658164475326955
H              4.140395807555052              4.72376460631355              3.0780263688780147
H              2.5246662395100703              2.3159807862203277              4.0213626916591565
H              2.871282287349137              2.36661873192163              3.3339737965332383
H              2.865843957627203              4.275936124240125              0.23978540831877612
H              3.040624710781991              3.7379346572049275              0.7185133176482705
H              2.494884755146656              1.4997442753492805              1.0755050019174341
H              1.899606274822672              1.6464962659744111              0.6627451185247294
H              -0.1670606941546092              -0.9386716390898154              -2.1544850725377853
H              -0.6502249497367708              -1.3602435006003226              -2.054532856321486
H              4.711646989495875              2.1365614124173726              1.3249326465858846
H              5.041718053978116              2.732527419487484              1.3269840364664436
H              3.8787901437298102              5.145119876756105              2.431843073146195
H              4.154944473153218              4.613759516334167              2.843793082673985
H              2.561017804289924              2.344364741457317              3.623667882548152
H              3.118910832486466              1.8949477369747483              3.199819017749334
H              2.725737148608239              4.229924831070904              0.2537140696411479
H              2.730066561247662              3.5641398989410713              0.5585914188457561
H              2.3036020518898592              1.4711166174999635              1.0774748417156363
H              2.018844219652677              2.1308991691214296              0.9327643614064542
H              0.2195960522340399              -1.1322000658936502              -1.913106899751467
H              -0.3343813949853024              -1.5037246397065789              -2.0968263041721467
H              4.766164296784152              2.179138619476109              1.1780332994224605
H              5.2092229231195075              2.848153729010969              1.1601402640171385
H              3.904419558979807              4.7578301984835605              2.5276707795779503
H              4.437077601518              4.519871636391626              3.072895516358337
H              2.5514718510993424              2.288159701545752              3.5010535275991335
H              3.247170818942104              1.928538777291517              3.1414854450746543
H              2.8239947744186518              4.525708524330228              0.35190102613558183
H              2.665894333489291              3.8639596297826135              0.34792556505794203
H              2.2306068402275945              1.4345125270667163              0.9657123603895352
H              1.8241590545581003              2.143016334746706              1.0785034595426377
H              -0.023739795263458312              -1.2893727684098253              -1.6560062840186223
H              -0.6356566875408836              -1.3991526115901614              -2.120939489456891
H              4.932512835514041              2.0439338409557393              1.1307657091157988
H              5.0254373074275875              2.726213147062743              1.3690909485166065
H              4.222211996459913              4.705983376107117              2.530002638215992
H              4.444441091105431              4.512575396935043              3.2882975770751415
H              2.633865835619335              2.324589630120619              3.539145477069613
H              2.9928505484348396              1.6445082852022224              3.5687932809462652
H              2.7176733644077267              4.521715896380144              0.22010838418684756
H              2.95881954360733              3.794533809905596              0.22348377606299819
H              2.3902618368109256              1.5955688991859744              1.1383633084962237
H              1.8233373352721376              1.9912852043008462              1.0801529831131655
H              -0.11772836809441406              -1.3502983132538053              -1.852455675609606
H              -0.9259157461954562              -1.2183977502693057              -1.8754385308343786
H              4.865010319688492              2.1131066986187172              0.9807959587483824
H              5.087180039773529              2.6734021669507277              1.4888295609437754
H              4.5707350516279694              4.827365247476993              2.578644941208885
H              4.408090494958073              4.661615050975995              3.2417050298846295
H              2.352103741099798              1.7944770573061175              3.836925179323255
H              2.9825043241577935              1.8407658884005027              3.3475767413968645
H              2.9497665839383647              4.508606713874468              0.25746577030402096
H              2.8744079548616224              3.7936606198822944              0.5075230344136978
