72

H              1.7542581208839358              1.9555983838159812              0.14889448793874632
H              1.3096058300235636              1.4685405902084825              0.5786401377388538
H              -1.3367491477214763              -0.29008288794463266              -2.239761361774398
H              -0.48066815732849516              -0.24139187103683551              -2.173358162591873
H              4.2939477512038815              1.7958782798092758              1.0285320590111706
H              4.700635453016108              2.2971389135545577              0.6515765812618899
H              3.4894839474048953              4.109269335661509              2.822913173142936
H              3.9947700973604507              4.592407183882867              3.170752445245187
H              2.212193204298204              1.489102080744589              3.0060876584238976
H              2.652181842934252              1.8752465308448603              3.4939912399655513
H              2.543406802387459              4.366215088667286              0.3027462295765036
H              2.129927464884361              3.9744138057221443              0.8066930572968267
H              1.6090535431047273              2.077635571389098              0.1492842338841645
H              1.5649049904657606              1.28992077505537              0.3835856200083826
H              -1.2674918774817736              -0.26358749549958727              -2.1597723565939857
H              -0.6383419211412407              0.0023858668666246687              -2.336315174677829
H              4.617546647412035              1.8613302221424668              0.7784864104749329
H              4.283603814681794              2.46964768529196              0.5462333157921162
H              3.4564711192186706              4.435387717043054              2.419246869011912
H              3.9996402698064153              4.657809903952851              2.879143014052256
H              2.1334322191344635              1.3764956904604493              3.2113896801745483
H              2.6933407154480866              1.83657032584915              3.414412223383847
H              2.5672627706825777              4.151787396076406              0.4238456245025857
H              1.9983313860226806              4.235685675619688              0.9094594884216053
H              1.6072646050415205              1.9224772099482992              0.17675854697600232
H              1.319264980255035              1.2525720103950102              0.42502277958350454
H              -1.3861081039689598              0.006975541064137441              -2.2883724779601264
H              -0.7224366165364735              -0.09638103166796412              -2.5191420085934753
H              4.385995453474626              1.8456321027593978              0.672063632958265
H              4.383970403619182              2.562362750628896              0.47549353875252187
H              3.444020186405023              4.395289715254455              2.6465522342638437
H              4.076253991935978              4.68441293047301              2.883575605116053
H              2.280142140385261              1.6518653781162356              2.796861184406187
H              2.9199525477921147              1.6850842504974142              3.114951519048846
H              2.5185275234368873              4.400968774623306              0.3658556987565742
H              1.9985184430257255              4.571244940397993              0.8423607532471198
H              1.7148906858327069              1.675322802413678              0.1899680583564177
H              1.5792755342663576              1.1582548839823963              0.7050461809079128
H              -0.9677995100206657              -0.012496593736618196              -2.006918258224297
H              -0.3549441845208484              0.0776719351033415              -2.57656780257941
H              4.265613979570532              1.8870103670541074              0.6624100696743529
H              4.373055332701672              2.605559452586404              0.7364039139909837
H              3.804319809575266              4.057300801729321              2.642209555547671
H              3.8951368972785776              4.521653826767561              3.1941897188169532
H              2.2027888286228903              1.4137443710921493              2.6942385640940034
H              2.739349508122511              1.8953302586653895              2.9723727920225986
H              2.35169095010009              4.345941119223277              0.18466072310431472
H              2.3417307850847617              4.157577448595199              0.8951533689718061
H              1.5606703210013173              1.7097398969200142              0.37879714729821745
H              1.6312381028045841              1.188054847892692              0.9794956084357703
H              -0.8586824924761994              0.11445431973216834              -1.946077283112101
H              -0.19901940477562138              0.10483923444529891              -2.2363789686080713
H              4.762671736502985              1.8276302210021478              0.5674622632069569
H              4.645743344981966              2.5754958528511196              0.37910549964798756
H              4.0672117018085885              4.14205776227705              2.534892130166594
H              4.006882147429262              4.480287558672372              3.230922399596879
H              2.5543096246984835              1.2951870708570612              2.7513252179327035
H              2.6731636381731567              1.9687201808542107              3.178724540909347
H              2.590394530828858              4.101447828697362              0.27887879286367234
H              2.3324134092766213              4.414988859831492              0.8873851798011426
H              1.6514244895403067              1.929418865346638              0.2678902195268492
H              1.4634959579297209              1.4447581356613042              0.8182838890482974
H              -1.0757628781613686              -0.035064014646551296              -2.161491318972464
H              -0.4442664211435948              -0.03227342037491002              -1.8786141630775024
H              4.431387310362039              1.751545579583779              0.4639703452442528
H              4.707793496019037              2.4242198472567984              0.1897759566034683
H              3.62136283413567              3.965958387816813              3.010420333404018
H              4.023948045593816              4.515670049697054              3.177531890729574
H              2.3867108501702403              1.6425810287523397              2.83096167151885
H              2.7367821515166746              1.9595123668244714              3.4156319331057485
H              2.679873858229735              4.258040756300866              0.1791807859946032
H              2.1540287216778133              4.022410325190137              0.64619068425274
