72

H              1.040635141044349              0.7492389150475334              -0.3623761430481063
H              1.1228924342019109              1.2828213897735445              0.20032688871664395
H              -1.1895750406441081              -2.0661709432732027              -2.0078634819767323
H              -1.928452621721353              -2.163462994634713              -1.695856210095275
H              3.7486369107762023              0.946201096284136              1.1821101549118604
H              4.185850347170392              1.4971532689337514              1.0106964289813662
H              3.8760138451861543              3.869587217964325              2.6705770502553623
H              4.443423758210811              4.156455593404122              3.1163182030261045
H              1.5274446834382671              1.992813052389643              2.9057697516714165
H              1.6102854210563824              2.22204773161727              2.252613788923513
H              2.583228608858243              4.177239032705571              0.2857508072818926
H              1.8754545009539527              4.01245176031685              0.0983573455650961
H              0.6993311836250943              0.9942290283486421              -0.2224429136369704
H              1.2931212314318778              0.6233816136835124              -0.13313360253419232
H              -1.324683446118279              -2.2498069352833254              -2.1642805951436426
H              -1.929115221456747              -2.178167642021658              -2.03294557833698
H              4.054887672737308              0.9158373492505519              1.1831150426265225
H              4.408640245120943              1.483290708595202              1.222280577221121
H              3.692091859072513              3.824090562597557              2.7199881119988785
H              3.998448014472247              4.270355269669811              3.2602376191338975
H              1.1406234455773736              1.939775885363449              2.659442118504848
H              1.8804817131992286              2.29010772382107              2.5054572352261752
H              2.767280681593694              3.8760937763724286              -0.24910140449515233
H              2.0710641159373275              3.8598567458529542              0.06102986357018252
H              0.6047707818578638              0.6214447744263287              -0.33242470913754063
H              1.324478537786415              0.8611160264159313              -0.3426543624178753
H              -1.1115596917305517              -2.3560322684603086              -2.5084652845541493
H              -1.5770388498869579              -2.2385499094295414              -2.020697673725473
H              3.8868832774234954              0.9447320556841876              1.2510168658620135
H              4.377117340789825              1.398315919424442              0.9393908202876261
H              3.473580012489654              3.811854663694887              2.5638623223324797
H              3.836312076483477              4.250414053738111              3.1695386090838267
H              1.9372075903781798              2.159775037009046              2.7613247210798293
H              1.4949706100430296              2.343845878021069              2.2498635786436045
H              2.595925861991774              3.9606949904406252              -0.29471920537528223
H              2.120306003228075              3.8900489074545974              0.30004843604357256
H              0.6009930574294833              1.0345077561324723              -0.3299361011888631
H              1.28865617503164              0.8933177016946636              -0.5628430924897441
H              -1.0324716596807886              -2.1269534578939475              -2.303762826140643
H              -1.6922473394541253              -2.5282734204512214              -1.9956502312570574
H              3.4037429333111833              1.1186823643621124              1.3127512213956058
H              4.057927051067666              1.3658151039828414              1.0144884961611107
H              3.6572689707872725              3.898241732336919              2.6277948712841157
H              4.181622233264838              4.170329930418303              3.1101983689391024
H              2.0200685115468366              2.292929271358769              2.8676887320553845
H              1.6099654468147968              2.0646675492958906              2.394325977451641
H              2.6253017566640735              3.68611587999499              0.14717069411483347
H              2.0328654258593635              4.013718970052268              0.39275862756808466
H              0.7783247685004635              1.0247699107457777              -0.17808125948146966
H              1.1123346587357423              0.7587622881126059              -0.7663130772991007
H              -1.305547128965127              -2.3243697613869974              -2.2879109367550674
H              -1.8430971394107685              -2.5686431783690704              -1.8792121154985568
H              3.863105942899039              0.8731276850887686              1.2537863383366634
H              4.286309147656467              1.4997526902041831              1.2353512324056721
H              3.5966415907319473              4.003996609100977              2.878694308353586
H              4.302667167092526              4.166748736863839              2.935885543269751
H              1.6636887390770496              1.9052684164160396              2.8200657939130793
H              1.399115098463693              2.2448298302073284              2.2451646767532423
H              2.608150749049275              4.3718615091031              0.3256028480090421
H              2.011684095644341              3.99804811950093              0.4777310767477419
H              0.7691134471791696              0.9240024807369445              -0.5458640383496629
H              1.3553336873067154              0.9877597020685958              -0.05872403412700661
H              -1.4105412680303389              -2.0811980945436126              -2.3079603758266503
H              -1.8561652499512657              -2.4747531013513835              -1.8081768337639035
H              3.725262585769847              0.8203908511126728              1.2475838619295871
H              4.2347263611683035              1.2581989401743887              0.9971606901469571
H              3.771495740009156              3.844743297626803              2.7461799033639434
H              4.2550017027001275              4.1809283491367015              3.2520370370369904
H              1.3842148734203923              1.9793118341102742              2.8062500747782466
H              1.7429950530854104              2.3396283732620895              2.2111947602108586
H              2.385631282538568              4.360394825112426              0.3080507235113826
H              1.8319544287335263              3.8837836307628675              0.35173475590386627
