72

H              2.268487035812898              1.2934137828564447              0.9820448924108627
H              2.019501028881899              1.9158260023785436              1.005710651060682
H              0.6744164840207323              -1.0340745627885972              -1.726690186953379
H              0.21618189374334162              -0.44076376345353596              -1.7774943457363126
H              4.639858579165541              2.3239452174823              1.1595305899601782
H              5.046022048435067              1.8475453539195403              1.5521438530491478
H              3.770929135291609              4.694889283679587              3.1679826271278335
H              4.4959469736186914              4.7103536021715895              3.1047622018322905
H              3.084277018814243              1.586373477921187              3.170210189062972
H              2.9131915136859967              1.838591122574749              3.8222104183007266
H              2.9239235924490403              4.071378011097651              0.7126057443717898
H              2.9798918135981474              4.329748944926616              0.015935975693040155
H              2.7195654117212573              1.5431182381329736              1.056127296508653
H              1.961974878150518              1.4576546656965008              0.8974406876551092
H              0.9325001909695672              -0.7042592698271596              -1.8623693628495683
H              0.23939398135398307              -0.5368610192914374              -1.6889014810290346
H              4.925813280882038              2.3906189113466407              0.8744932380396175
H              4.912953529919798              1.925261316380553              1.499459081102465
H              3.8213378482932403              4.692449161250266              3.0434719167274653
H              4.431467429702575              4.9597022078519              2.914754445485554
H              3.1922914595816567              2.029291635992041              2.8566527815440175
H              2.923526079722571              2.1108474084751703              3.5922127456186437
H              2.589944920485806              4.0345134997023315              0.5964290931023134
H              2.9019205004762894              4.47075102936658              0.13370420334378952
H              2.3782248495453246              1.858985437021883              1.044541804870014
H              1.9926448612646224              1.7257242750587278              0.480822890583881
H              0.812200136028292              -0.9195617549911391              -2.070993346327972
H              0.4326207236519974              -0.29971157203585536              -1.797620982756636
H              4.913598879900361              2.5738942073806697              0.9851749074425383
H              4.953455192289142              1.8244783690056163              1.06945636673483
H              3.5911606574577064              4.881424170287713              2.9542139999080845
H              4.356601854431322              4.77860211264849              2.855761161361947
H              3.354827278042287              1.745798818214335              3.0239032754516955
H              3.150543011205113              2.0177522157788497              3.72992832793209
H              2.588706097114508              3.9200517904401018              0.629658730340473
H              2.686464026182797              4.535895545298531              0.21419511413365686
H              2.646832279409647              1.5074036586500756              0.5988634964802653
H              1.9616021011424978              1.7431330879336246              0.6919642501574179
H              1.0256793027372022              -0.9761474107508995              -2.2035330570922556
H              0.8162585805098473              -0.3704990079691434              -1.89945463477976
H              4.772156617199089              2.545549413323897              1.1034271671990152
H              4.675726749878995              1.9656783303347485              1.5997769781657105
H              3.72336928300446              4.7867278459732185              2.9322859247424558
H              4.353148863966336              4.4238504035850355              3.003916950747339
H              3.2464665709622156              1.2470138110087072              3.6431408096827744
H              3.051170942394642              1.9879958366054407              3.5241810235504736
H              2.972864014112791              3.7811010224732287              0.5062785749612623
H              2.5602352246942908              4.2336870364874395              0.017479573682552683
H              2.3151691691238434              1.7502904836099              1.16879971122213
H              1.7776272504545194              1.537391436207506              0.7637840515837937
H              1.0046950260803413              -0.9641792898081339              -1.7209205120979258
H              0.9206766442622468              -0.19664864397480863              -1.8521841710988458
H              5.053678940252955              2.71442658077503              1.286536631185491
H              4.834083969586302              1.9754662820810807              1.294875118603897
H              4.1009266896984              4.59516794357053              3.1577634814968194
H              4.715935413684873              4.5066901501705825              2.785844317529283
H              3.2985467399469317              1.243549681627218              3.459445314410973
H              3.1296421760318074              2.0062221214732805              3.7248538968463376
H              2.99060221931428              3.7707956532833573              0.680737788311511
H              2.761998474114764              4.470034793447627              0.37766845726384696
H              2.2380277035245775              1.364265809282078              1.1704838393122525
H              1.7999868175533318              1.8882194979407065              0.8863613538487595
H              0.7409824638824981              -0.9938602819726005              -1.4908458467190824
H              0.5331747571126342              -0.2524554209929443              -1.5845540429497784
H              4.6736468570406915              2.5539286251121136              0.9144744348039253
H              4.743197480059237              1.8623166229229322              1.0400731709352335
H              3.9809398687940045              4.35266604491981              3.396189968941606
H              4.536288390956837              4.572634998330137              3.003034700950238
H              3.5988096411978674              1.756116579354225              3.644166496349367
H              2.766814939044076              1.8803859436796826              3.530238901554579
H              2.9675893721116533              3.864856561745366              0.6946820248353553
H              2.9324507558882846              4.363297634817724              0.10509777747373417
