72

H              1.7599655494503974              1.9822358097042994              0.3593430026083591
H              1.850865158736702              1.3391473441729143              0.5773235641535633
H              -0.7788879900291044              -0.04619241706536669              -2.2164153893600713
H              -0.13968332901824604              0.1643313214417543              -2.3913597845941172
H              4.81894922194942              2.0606423615194767              0.5196667398285009
H              4.49774581471552              2.6743692112899837              0.3249658893339354
H              3.810771438665242              4.394383970098626              2.596035245987787
H              4.118272491120462              4.756692172858153              3.2199212752615813
H              2.7543912377974973              1.3673724636465103              2.973615280237393
H              2.8176185297711083              2.1182421620291016              3.085507656961813
H              2.9136457629873176              4.415645357412357              0.2239407501381917
H              2.274089771238028              4.289191717670809              0.5871105352762434
H              1.988201661609886              1.7866699397508923              0.22430683743136604
H              1.7368894656300162              1.4322749408740325              0.8163350155702069
H              -0.9340630738519796              0.06774090623067792              -2.0736760783540116
H              -0.2610174583045904              -0.19528753916091218              -2.3454107286173316
H              4.336586842806042              1.9219494991394162              0.5674303404677002
H              4.787794260777364              2.5051506864759854              0.5393069164045293
H              3.9807060234467584              4.020321681405877              2.977141157946791
H              4.1076952259874195              4.578588562755876              3.436362050449089
H              2.6525224990737613              1.413990471734682              2.923422756166045
H              2.8635779918121167              1.9988908263417475              3.2391358822466425
H              2.519396527207765              4.628763253982567              0.19712842439402264
H              2.3449310759187507              4.040818179958626              0.60966531534891
H              1.8000733210310782              1.893256133483385              0.2951910512415025
H              2.0647464081044697              1.5982544789740876              0.8967389665442104
H              -0.8508039518941355              -0.07731499365940907              -1.64497210917739
H              -0.3001332833955003              0.0555516523694227              -2.2303959642951003
H              4.614144007410858              1.8029560305206676              0.6853921039441251
H              4.563552625645562              2.5094414170734396              0.4896954568820291
H              4.237197209666033              4.1938157054609455              2.6492963893007864
H              3.9495606609731966              4.242724080372751              3.3658755628021853
H              2.482799129496149              1.1040945688104777              3.49605068025135
H              2.6839960450055322              1.8697306382588466              3.390064280386778
H              2.4633111713992744              4.378837627238574              0.18630553864200938
H              2.4094024969429277              4.052190643664944              0.8532406113928297
H              1.760115949419344              2.0616302626867795              0.20940619418034373
H              1.5091835667162865              1.7478988955768653              0.8452316180935517
H              -1.2076741622981              0.08647537539761949              -1.9259128224546829
H              -0.5598382637239239              0.1533935289179062              -2.1094742767006793
H              4.710435733914995              1.865519691249548              0.7126002798546787
H              4.499049189953457              2.3966417683263233              0.18804573586365683
H              3.770391914828888              4.457829069014877              2.602464623708912
H              4.071944023660565              4.3341971359399185              3.270271196300426
H              2.4836616978525408              1.5925262906994797              3.346878410602889
H              3.112153971181086              1.4371100173481997              3.5904182904063564
H              2.610389663598564              4.2725925502520505              0.1597486031406146
H              2.289121567271781              4.553500587485106              0.8004163249072174
H              1.9597440761424605              2.024305119832052              0.14060616587054092
H              1.3838259626606093              1.7947974358814553              0.48374835639395714
H              -1.1278982502552286              -0.18139249539123534              -2.223480209725927
H              -0.43544547897169017              0.2508289219705589              -2.2891223967306598
H              4.233020382365301              1.9959547448180064              0.9857582958261786
H              4.261569888672599              2.4087899012137073              0.41362199884322304
H              3.4581097592906787              4.436380625793498              2.726531370828323
H              3.935163880755098              4.455384532379449              3.2695890524775693
H              2.392249112576141              1.627837093277889              3.2282053668360287
H              3.0641268044391765              1.5218190589645335              3.4109389360291362
H              2.7081097277751              4.408209054474825              0.007858508884014207
H              2.3351678676538987              4.388528500169718              0.6763440026356079
H              1.998750719473556              1.8546709240187937              0.2856874742110012
H              1.420759820813497              1.376252001892486              0.516484083197143
H              -0.7860106355350394              -0.1309402520092747              -2.2037098816382588
H              -0.16765370203552565              0.20793842330998286              -2.5826790843365526
H              4.523458841817686              2.0681557492570697              1.12640985225626
H              4.3424892686960455              2.6012084128802804              0.731885470670838
H              3.7823584316819505              4.581890340948964              2.4971601918427635
H              3.90902106098727              4.6512294995158285              3.214005179368543
H              2.6471407346214195              1.2712690313353687              2.972495089573353
H              2.8664613794476423              1.8780381223993412              3.2787058988532474
H              2.851864771904163              4.407400397204282              0.18185768885542697
H              2.3978087533724772              4.404891380426899              0.7575076808339163
