72

H              2.3846982078332104              1.9955977949458679              0.2985513329888977
H              2.003791852345504              1.9459978730119556              0.9267855912840747
H              -0.5171422791057125              -0.3669341373838233              -2.0434205045694784
H              -0.1548095029480947              0.12284101934459106              -2.1681164791097887
H              5.101663436358757              2.3267926543078086              1.1162080272951198
H              4.601329012540512              2.3334922318320186              0.6504879208145902
H              3.9850959674863375              4.6688020371909715              2.920954636259673
H              4.053245047902406              4.1864109947121015              3.4186309249671356
H              2.7043276928699367              1.9439312860656985              3.3273177392127486
H              3.30713460713407              2.070705921704888              2.9448319292019853
H              3.244710484958183              4.307030056558951              0.03617824165381356
H              2.6493231910383424              4.385839461970153              0.34140324855306675
H              2.4396671996911863              1.8742248353865405              0.29290796462626023
H              1.791910250425482              1.8629223810259155              0.5811386243229065
H              -0.554982757922842              -0.33894456764425734              -2.0168515652981527
H              -0.14944363803313668              0.2111164880438633              -2.4523232058129967
H              4.901074695117466              2.20016500105743              1.1940561797093372
H              4.720219993538743              2.384830938034052              0.4295678873318819
H              4.022583239423192              4.8395368034745365              2.891794203914961
H              4.142038734883545              4.2445716306160675              3.234247372052132
H              2.719296694355317              1.7252436662956112              3.4527030047073417
H              3.375421696013576              1.7153918450249517              3.2192408629384346
H              2.8299489829906896              4.525460617960293              0.060851620929166995
H              2.4595761134688345              4.571164788671809              0.7095007089404824
H              2.341487327163994              1.9006948952482965              0.2066096528595705
H              1.9635664459800217              1.8537365922846316              0.909854536796085
H              -0.34940248847428285              -0.16522476525170565              -1.8092046063995864
H              -0.09537473941369394              0.2419092942944451              -2.4410589130114744
H              4.98400344374406              2.139047593471343              0.9033710406574657
H              4.446320624345418              2.5458400800466494              0.6786378666276355
H              4.236235414458164              4.853827457534021              2.902222733891849
H              4.070625235780701              4.15786339586124              3.0522833446014728
H              2.963721385253147              1.428472887198831              3.5733298330770036
H              3.287272147990866              1.9624994020000022              2.998811477161057
H              2.788154246114899              4.518000041408344              0.07239064510822157
H              2.4690169575583085              4.785270407875501              0.6686235759927107
H              2.282831244208097              1.927450474980796              0.27262978299484986
H              1.8448379600164444              1.8069433556702077              0.9195078299085525
H              -0.3858170433155103              0.035042905747144144              -2.022526718650975
H              0.004987788604509815              0.3124752579796245              -2.5023343070050115
H              5.10880679736008              2.2439342247226026              1.0256168154397243
H              4.531921042415365              2.558306089003702              0.6723687328052717
H              4.283330678188397              4.654919902210265              2.8257905770643843
H              3.919522742701942              4.120661997507785              3.2075009840279036
H              3.191298572516897              1.3053949471346724              3.0415415146363434
H              3.323285781962836              1.9136234772054999              3.2622460519294134
H              3.0171019612412344              4.329376418780363              0.13496677019708986
H              2.46932297158018              4.625111099208959              0.5444416011835098
H              2.30520527057252              1.9781500698263152              0.35661615557702037
H              1.914905621137818              1.807116046939721              1.0038364865355578
H              -0.028901791256716356              -0.039983974382878804              -1.8058969451736853
H              0.28797708979027037              0.510660405583821              -2.2202148678047737
H              4.853323136740551              2.3041091076142295              0.959066695390535
H              4.518913848971153              2.521490611166983              0.2975172287865897
H              4.424773507532667              4.43602656878521              2.972780752861715
H              3.948493018832382              3.902333187731368              3.1967216621933567
H              3.2814824949903123              1.2346138520984626              3.424316002589463
H              3.168486213915416              1.9442055493679615              3.220995926095763
H              2.884960280056131              4.466370646236947              0.05081732031891846
H              2.80461757618393              4.190005382237622              0.7461453214496615
H              2.283787815002448              1.678525934421484              0.7945017042333464
H              1.6107795158276048              2.003732552028592              0.9706477408978034
H              -0.27854501466047665              -0.0952220033372763              -1.6156317668763907
H              0.23968117669673653              0.24594341062986833              -2.0917831014339723
H              4.892598479625481              2.132779012824416              1.1631380435175727
H              4.796296126146789              2.548976585045693              0.5621712240825393
H              4.475900519302589              4.405239756278202              2.9910791302238233
H              4.003706825633262              4.12753888487587              3.471621055613168
H              3.2060401401930387              1.5278890819304696              3.1774195988199097
H              3.286231029727218              2.2703676626452953              3.2037744986207284
H              2.9577578975686314              4.6074740640824725              -0.01410441282576817
H              2.923357427250241              4.415297722864295              0.6609316807878768
