72

H              2.218999405360017              1.3309979375959422              0.6537545398362412
H              1.723791560156105              1.6792957764984795              1.0821930605758772
H              -0.968738836219664              -1.0264338929521952              -1.7762484265955327
H              -1.2268991927626067              -1.2146620699311692              -2.321755576536994
H              4.7458453934394              2.246989881640536              1.165682668896629
H              5.137445294061233              2.7219824584082404              0.8307822689789037
H              4.335488079391372              4.931564275177339              2.570187700991737
H              4.68258745833533              4.481321559158056              3.111554495470403
H              3.1085347692484593              1.5515419757468965              3.854329541743403
H              3.247551776215461              2.193486472992369              3.3430250256655962
H              2.8944782632180845              4.480723073321043              0.8206558494791167
H              2.7519454699147814              4.035184419141268              0.2632158442193251
H              2.2452181115531076              1.3811650213228752              0.5975496529362777
H              1.7278555626392245              1.673187837284139              0.9673901880212462
H              -0.6083461341792238              -1.0696428613441702              -1.7127805878533706
H              -1.10323664528093              -1.3475948672087827              -2.317368334958
H              4.669227413073432              2.2394496513605286              1.3121421852565274
H              5.123127939569883              2.417303714161847              0.7123786268359175
H              4.276667711792159              4.886495856488742              2.8281114906870513
H              4.376727787317814              4.205983211680877              2.913023157828098
H              3.461562993002571              1.7053289545398076              3.690819627868344
H              3.0373515710636494              1.742638442939774              3.0477403121396835
H              3.2970094204532283              4.593970034300256              0.6289338485648722
H              2.8151360016911893              4.132765937427244              0.34025384386575896
H              1.9362821624798658              1.3300367753634401              0.6719543972747598
H              1.9235829472999728              2.0797204472249664              0.6326340757154012
H              -0.5726973538284494              -1.2375436733071785              -1.558234997018997
H              -0.9121787201679308              -1.4159807277362033              -2.2803724349002494
H              4.958813010200941              2.3527390756865354              1.7243096902585207
H              5.1440048562014145              2.360108860922157              1.0154557074187462
H              4.351665491717162              4.800257004356242              2.753684453063588
H              4.469917751214342              4.045598910728378              2.8742109802143716
H              3.0602479573236154              2.095463857777505              3.8210199382821433
H              3.121911910491572              1.9722160841332719              3.0602778427092967
H              3.3197186769006524              4.663921353019964              0.6863110655875038
H              2.978384238474972              4.188865992520269              0.2325243444243654
H              2.2253170102996496              1.1862795950040324              0.8945101862260821
H              2.0521995124892856              1.7960677841830128              0.4788988939372909
H              -0.9404991968314524              -1.2951936588439308              -1.6888889776184115
H              -1.146980003788775              -1.7084288938724965              -2.265736919880001
H              5.034307074876043              2.305239666823825              1.522924099511481
H              5.0263477886562935              2.8325824486095557              1.0483911803371262
H              4.541619568429595              4.703228644748464              2.583592197978651
H              4.467300101581593              4.106252091619536              2.945573639523202
H              3.1545930433612326              1.803597615415688              3.7371403301495385
H              2.931913807179248              2.3593976702108463              3.329653677135325
H              3.218480626587407              4.728293243635426              0.25607985267213745
H              2.5742205189696126              4.3626984456141855              0.2990427205438195
H              2.437894712356915              1.1860796299496892              0.6878723735220044
H              1.8622254861596974              1.5033351653836091              0.8743094357677013
H              -1.0600868970143469              -1.2864393377571786              -1.9131664801724806
H              -1.2251250399434876              -1.819230393886505              -2.462028853378225
H              5.119870576392786              2.345799281642711              1.4310684302085819
H              5.337390659206016              2.7645097114998034              0.9277206138908859
H              4.456481772721452              4.812570106700512              2.8967041600970087
H              4.30595391682637              4.143632478816899              2.7566767705710866
H              2.787208764621392              1.5438708220676791              3.7897579875723344
H              2.7636375940182423              2.1035986193370686              3.1649934220557014
H              2.949465423995897              4.484937626715628              0.15635793912650617
H              2.536342505647783              4.051189373575293              0.5309294952039536
H              2.432048795093371              1.1274896231449136              1.0091022524191517
H              1.8292284765578495              1.602154800218832              0.7677868591419881
H              -0.9623819399433768              -1.2337337453422177              -1.8286319312296837
H              -0.964744729965309              -1.6726834776173087              -2.3951744116900917
H              5.109274252316692              2.3965694209432495              1.4008168428591428
H              5.210821673530021              2.7516193170472625              0.6869630654157575
H              4.589904737814717              4.790878762432751              2.767263582543252
H              4.425951844552667              4.137907784535622              3.2098298784531267
H              2.6218745927899763              1.7676629365360979              3.7844921380893184
H              2.9402797565896646              2.4158125193711575              3.535037905015827
H              2.942618070793261              4.632677990814632              0.5026083029382715
H              2.684067276322037              3.9973600082838225              0.2304091892531092
