72

H              1.7516676021105335              1.9295436720124854              0.1278915053413345
H              1.2700958358173946              1.4616805759268623              0.6060803362985374
H              -1.3945581193185441              -0.2785760020768291              -2.249402108697554
H              -0.5373228698640997              -0.24306856730346343              -2.1671994327387942
H              4.3244274280396295              1.769875522649254              1.0144518212566964
H              4.693592223642939              2.2934305514574316              0.6650224453043839
H              3.4546410452445064              4.0830384276412              2.8351446763501187
H              3.968907648187726              4.590170853803511              3.154580734275079
H              2.228574550904587              1.538096619121883              2.9857766530442955
H              2.5901009038938665              1.8420142161444493              3.4804326142680404
H              2.551916073555441              4.323666808098597              0.28595171522531654
H              2.0912839323609425              3.9822465789916333              0.8219201182749312
H              1.5605464736967798              2.089612715782937              0.16775733270906437
H              1.562120578465396              1.3103378993597323              0.33049414966963414
H              -1.258963487716589              -0.27567668116622435              -2.1763669442270754
H              -0.6551284783308652              0.026859611642939603              -2.336769462953054
H              4.5697653606510364              1.8801948750050799              0.825951300433636
H              4.275373499962094              2.436093233888303              0.4827499032264591
H              3.4501828845477087              4.458780385999914              2.3884922821293424
H              3.9820622651376114              4.6252843296836295              2.881569733940597
H              2.092388786685124              1.3716236289363741              3.2070397103007773
H              2.7087828565766765              1.8106664354354867              3.4198210328788607
H              2.5475412020661534              4.150876923938965              0.4243192231768957
H              1.994495253205641              4.258541252047718              0.9160129930380672
H              1.6356128574568272              1.8821638479368636              0.1627481513731404
H              1.2535511873186398              1.233834769411926              0.4614525170629417
H              -1.361809182676921              0.0035196894935396158              -2.302824240017194
H              -0.7186737763030345              -0.0933663971736351              -2.4945065350637874
H              4.346043390775432              1.8659398678385344              0.6747600749878482
H              4.355187925122973              2.55855789737321              0.5367211452400683
H              3.449137110820754              4.387501052925126              2.669952808446164
H              4.0444392721123865              4.718291613825481              2.849439715600923
H              2.268432701538712              1.7144790400148997              2.766434445462284
H              2.936196806206047              1.670693720793978              3.086162681763018
H              2.5092915512983422              4.38626613268584              0.3862263820559812
H              2.0312560326413096              4.564552169373814              0.8326673882403893
H              1.6770334436704197              1.6708304355407517              0.19400850560704885
H              1.5713798967611443              1.183140249651397              0.662861685969603
H              -0.960246755284656              -0.03858657205208596              -2.0745235366731962
H              -0.3849996062440322              0.04581929903155575              -2.590443311747656
H              4.342188861100748              1.8650015084357865              0.6646224332843512
H              4.424003842888803              2.641476571174078              0.7366935278626813
H              3.7627412646884024              4.056185985775722              2.673217107374835
H              3.9031416570222772              4.564471023096033              3.1459411581255883
H              2.2037086292979646              1.3756760866928337              2.6232277747303496
H              2.692277846200302              2.000600550349105              2.948657207598795
H              2.402840023618779              4.318662853193415              0.1655311339895539
H              2.301824015523578              4.1452151335076195              0.9003707420246126
H              1.5600173084812705              1.7087207558479012              0.40102470201507195
H              1.6715086768401497              1.134691899989418              0.9068779833412479
H              -0.8946264660525375              0.12142921230900794              -1.9311551705728085
H              -0.16182110087661977              0.07461134667308483              -2.2611997483949184
H              4.689970183319968              1.8512732083400096              0.5276404549861843
H              4.656841911698388              2.5349427500080832              0.3796412071289231
H              4.0791834298139875              4.129943364037114              2.589001176699257
H              4.016278648015758              4.456939049715696              3.2037139290245586
H              2.5443502032671503              1.3106371137238346              2.736008962853963
H              2.651489819483284              1.9768368688834284              3.185325675335921
H              2.543292754418969              4.111674487555207              0.275320774694564
H              2.2961301178764955              4.352049340711346              0.9066892469994949
H              1.6328662859690193              1.9057645905416358              0.26006180239314364
H              1.4652919853964077              1.439100688203517              0.8725123256890311
H              -1.1245118806023393              -0.0371246093087056              -2.11419785943381
H              -0.42658441717108897              -0.06155913102009051              -1.8393252909030595
H              4.449041252288873              1.753982106105522              0.42625998850222097
H              4.703198666703846              2.3888043657560503              0.22616577892247697
H              3.642749024495676              3.948798260583559              2.9842266125369927
H              4.058042524353909              4.497319651285018              3.1617756546297624
H              2.3347824009384053              1.6244674780064239              2.863198109213084
H              2.7500262505772057              1.9401076492560922              3.4136047591751617
H              2.6421059174587715              4.278891849950496              0.2038489529636437
H              2.1463797768215964              4.050680943921573              0.684713405737215
