72

H              1.8018767219265504              1.9702604573427553              0.3328224049895012
H              1.8586888077362684              1.3159595474633228              0.6079506175199213
H              -0.8267748051107189              -0.0379302340703383              -2.1967572217397295
H              -0.09930732433707139              0.20780581869242748              -2.457945035551386
H              4.864287149372658              2.0424285152433383              0.5226468203386043
H              4.456746281434897              2.717976721615843              0.36531811017328764
H              3.8099354566553907              4.362306221548645              2.590339204738921
H              4.096966972101656              4.7726957994329995              3.263724081975505
H              2.8118103411573427              1.3913975386597093              2.932154620282709
H              2.783330548819581              2.0933250851382827              3.0605114475613586
H              2.9569043216111917              4.38899237966087              0.17256433736841773
H              2.2562030985752792              4.306910792717864              0.5815513118843378
H              1.9748276218164207              1.8543474040673853              0.21301793122753993
H              1.7793426396588756              1.4075673663038635              0.8597605977053773
H              -0.8303785627777874              0.08292069935114597              -2.0585548859839538
H              -0.22547941458984935              -0.13538653884598087              -2.336967487546176
H              4.353279458836433              1.9481327312953165              0.5983360423752659
H              4.7886276271116985              2.5102602766114637              0.4490336219835296
H              4.05333023524225              4.015788867568437              2.909006766618012
H              4.109680888984425              4.551692138926609              3.5006793629190303
H              2.7179078905150456              1.3429203848534637              2.961193853204127
H              2.8585969905945388              1.9904500135485685              3.242848694851435
H              2.5206175288894612              4.638861558083444              0.1804423556292531
H              2.3976687114290423              4.071942672935637              0.6166848707025279
H              1.862460382733424              1.8459581467645731              0.3037810693373044
H              2.0136499884576127              1.6400359757239815              0.9823681505465353
H              -0.7704580714291176              -0.05261108635499287              -1.6647661006534393
H              -0.29038283627546246              0.059664514212342416              -2.111152326226994
H              4.57371305927247              1.783789991862737              0.6682360504496287
H              4.569056800818504              2.5434166367179984              0.5093833121498598
H              4.265090066269883              4.1671563473241156              2.7114094282701378
H              3.9527788457188984              4.250395940858144              3.385760976103962
H              2.518577040917499              1.1525864127835348              3.5000146684407873
H              2.7373346392351636              1.893992024193681              3.390212751610487
H              2.473679983940576              4.388597126542422              0.17848594559184858
H              2.473438444446089              4.043033131584045              0.8142290153754417
H              1.7739663952555058              2.0761944279871134              0.2072963260946546
H              1.5203158301169817              1.8286862575926701              0.8161577025512692
H              -1.269011068225485              0.030044999554457233              -1.9624730666104797
H              -0.5181518015034198              0.1264435961155861              -2.1267631932247983
H              4.787816771236689              1.8838063045039841              0.7773970512490759
H              4.549290166255739              2.3786573082588838              0.18775770364666367
H              3.7383773595252934              4.47404621435511              2.6349506072488675
H              4.075377630537549              4.356062662661637              3.2809457978521404
H              2.422032487398818              1.5834678870454806              3.3121743522863087
H              3.161787383425436              1.4984311774424957              3.6253327374207704
H              2.68796726443912              4.267265512638746              0.1562682218764791
H              2.271148202384344              4.526806035907321              0.7414469248547791
H              1.993698405864227              2.083137071592214              0.12475408409305157
H              1.4586058504983521              1.7472466187931146              0.4187223406701606
H              -1.0849396099758264              -0.17327465718415427              -2.2202893322513924
H              -0.4683247316128225              0.23471938603784256              -2.316758450071532
H              4.189195126317317              2.0062621822865716              1.0089071069683146
H              4.23743272889617              2.399459745182325              0.37454257079422065
H              3.4688440729597483              4.488492901612944              2.711498877047909
H              3.9331738471614828              4.430544052217932              3.2794884911385513
H              2.358640351605583              1.6504113273191323              3.2824413784003688
H              3.10779569774368              1.473767485943471              3.4586072771031455
H              2.670557035602324              4.4359664628594375              0.011910069498025543
H              2.3227242177532674              4.336745032676852              0.6796522755639499
H              2.0223057573832977              1.856748376127579              0.27974987496443654
H              1.4112173048725694              1.4082562203799929              0.5377273505954966
H              -0.7820061774465465              -0.1247882982539356              -2.1604590414138176
H              -0.18419455588466271              0.19994546924347367              -2.5924004821217492
H              4.538551105369319              2.052727270955872              1.1122601136530945
H              4.322293335576291              2.6197465343284296              0.7450249964275178
H              3.7980341775197246              4.640777611639295              2.457591629637494
H              3.9524113558266083              4.628099069493606              3.205859637066098
H              2.636369150570069              1.2560772353218164              3.033728258265189
H              2.9289844985580746              1.8441399226724209              3.259421952826022
H              2.8271870299712867              4.4645138349208064              0.1879447535105785
H              2.405316038050648              4.490271470892465              0.7754086770230192
