72

H              2.4708024034115126              1.5936147299559809              0.8537974666704519
H              1.7286834053949758              1.349122366601523              0.9395982614523077
H              0.7004940170058495              -1.1469792629776687              -2.1406347569956456
H              0.47868731566011397              -0.4352624215495609              -1.75162414587905
H              4.6068419584347655              2.2494873899081496              0.8966437240111195
H              4.978264766149771              1.8007611547793867              1.3228505726853403
H              3.4581847050398804              4.518491998531028              2.737173562152116
H              4.181002964726926              4.405894213854313              2.9676459187965407
H              2.8300677452881637              1.8901092830109143              3.3972384644494076
H              3.126551854310407              2.106561248492743              4.113089258482927
H              2.575937273572982              4.105999197187811              0.7625034273797419
H              2.837990518277733              4.21800868395958              0.016644117466973384
H              2.3345447451074994              1.6359480911911508              1.16393287022212
H              1.6402992741720142              1.408269880688501              0.8691402578873961
H              0.8778080748719727              -0.9868928408199807              -1.8016930985535866
H              0.5269155178898647              -0.45896494813897565              -1.5330326558341705
H              4.750021650631023              2.196849765098427              0.7532541264146089
H              4.7376014039170276              2.0104999910103762              1.5075457897323719
H              3.7957030057220016              4.313814382078886              2.9376158706186697
H              4.485607050175773              4.691067712471038              2.9748118719727383
H              3.3822131292835658              2.155378031347792              3.4044736089902736
H              2.8989254176313657              2.2229836264616494              3.9040936299489726
H              2.7263100131328013              4.297744609125806              0.6102692102187998
H              3.0897696818790115              4.353352115534193              -0.052765149887568266
H              1.980782430602462              1.4281536686593996              1.2806717958511715
H              1.6237173812577064              1.7152633408442037              0.6505549846327131
H              0.5668876137728258              -1.1319028316737711              -1.7841340007105428
H              0.2615161900232078              -0.5002168575698356              -1.5546556102926248
H              4.613404603529849              2.481228287322235              0.8010966215257587
H              4.829970164665914              1.8533695590246817              1.2290094403403513
H              3.7065308696036214              4.645682874950496              3.0081770392091873
H              4.389171740093044              4.755110578067129              3.04162459738535
H              3.3185301980610884              2.1918639055415685              3.5622554254663332
H              2.8456831858008864              1.807446919904256              3.8733098171361187
H              2.8991187261492177              4.309277058688182              0.69985485219185
H              3.2465382336269712              4.21030960567631              0.04219758080295334
H              2.273998460169099              1.1745062553481966              0.7963767334870133
H              1.917570841969007              1.7920728281652478              0.8494434334033392
H              0.8284838536286094              -1.1743262932785337              -1.8922462454088527
H              0.07179957435523904              -0.9874970631712109              -1.607920848760184
H              4.687726732726801              2.1559326360081155              0.7316044316454927
H              4.931582410367419              2.301738240929282              1.5394300303810968
H              3.6624321818554217              4.55655320032679              2.819560796201365
H              4.282611047581517              4.702505905267579              3.136768306423932
H              2.754958563407919              2.400133746634227              3.601284390737358
H              2.5404662297258223              2.000364247005287              4.176923903325122
H              3.084018292552894              4.2206198752115505              0.7692903382692114
H              3.151375126506222              3.8871602703543027              0.033514323124447486
H              2.5088213481972734              1.527579746474677              1.0286344954655402
H              1.8514860968870432              1.3413946170398092              0.7129653482742112
H              0.615259749544076              -1.0399216000716636              -1.8111385862792557
H              -0.04556225306884172              -0.9459176459991544              -1.8127238833742343
H              4.799134488508536              2.498199094541814              0.8275796930517182
H              5.0526430945949965              2.2676242570238814              1.4406553759454204
H              3.8255674427573623              4.4457640292589575              2.617764623150494
H              4.275388790279408              4.915610475990468              3.0209585585066825
H              2.613968771586112              2.5608209791934557              3.457150478685471
H              2.9205057234516114              2.4330229255922506              4.080855556762073
H              2.5841887262355585              4.01505430447919              0.7819262910180842
H              3.1118029380397685              4.0412678887074795              0.30013644251858806
H              2.6313372903969703              1.478696515388107              1.0780090645797455
H              2.032736643606555              1.3294704250690224              0.6760728008936107
H              0.46382327902053594              -1.0478694057857048              -2.1155428786828234
H              0.02862497507227399              -0.7387013648469487              -1.7248532705057142
H              4.439393000076545              2.495613764742929              0.5265368071707841
H              4.820466127113091              2.1499443293496934              1.0473856593613422
H              3.5796120101607447              4.2878497261094255              2.623372753939852
H              3.9977950411854013              4.762293980868403              3.0012211241720634
H              3.0075363014581495              2.5035839093940733              3.3784716636622365
H              2.954905634413774              2.150136884430271              4.004069838326185
H              2.3974439899019178              4.0963059811127245              0.691999473809102
H              2.8807067265258417              3.998412134296809              0.13514729682267568
