72

H              2.20372184374289              2.197784411767137              0.27093387161385113
H              1.9627486156017868              2.0412285225916493              0.9821945474358289
H              -0.7058561938670673              -0.3394241181259023              -1.8716229129492576
H              -0.1660241177293291              0.2749555016993405              -2.1413683288036105
H              5.206198520029037              2.3234277660391225              0.9420206977301951
H              4.593314441300271              2.2352138881184622              0.41185470975782956
H              3.92755457655602              4.761287232984584              2.9207322560878706
H              4.204993052916427              4.108566519629964              3.3121383195596534
H              2.703331191286437              1.8955295610628144              3.4236877921361093
H              3.367472822472763              1.908562681287044              3.114962671009568
H              3.1630683895155416              4.287481272611824              -0.00903088233846727
H              2.5833433165678845              4.519019357336496              0.509753689044833
H              2.4478785067345252              1.8821152641895083              0.30369700162750934
H              1.684168302042209              1.967039071810254              0.383771579150673
H              -0.6529922847428012              -0.28163551713347906              -2.122469522285711
H              -0.27025657728296115              0.22396806208675565              -2.3876842238345266
H              4.637900990069366              2.1543676345381275              1.1708485976233336
H              4.509299658818822              2.377087048746164              0.5422950763092604
H              3.8481677773657235              4.787874861679781              2.8538147906646985
H              4.050736816974406              4.249546636054326              3.407129870718343
H              2.6717501081713766              1.7025008349275992              3.382078537236074
H              3.4619415695656937              1.7277126861208127              3.3449618376754437
H              2.781900079563013              4.469244369624794              -0.028079639862710108
H              2.449261797548008              4.594388619891384              0.6043881640262999
H              2.2937417425261653              1.9316838905914984              0.18385250753802065
H              1.9891941685719194              1.7627431321961091              0.8079356751282966
H              -0.24414988523598372              -0.2050415344297507              -1.9532306766155503
H              -0.06961075445648192              0.26327889220814465              -2.509269027879467
H              4.9903842875769095              2.213067358709999              1.050271521249764
H              4.3245424733484805              2.554510002876213              0.8307042960024562
H              4.263541612463519              4.942901966212701              2.8349398935020558
H              3.999077814870396              4.240717603231136              2.9403885756572135
H              3.0181022845957446              1.3116755232931898              3.468847626892986
H              3.111870518578308              1.8861033654515686              3.0856128973994226
H              2.91175269938888              4.5099764531041995              0.12146650582215532
H              2.483428698257541              4.822934295687895              0.6534716266079577
H              2.2043098856583403              1.9418542477841052              0.34647647400212217
H              1.9073864541549446              1.5861503809629254              0.8615116886360198
H              -0.4461583181998916              0.03324806157010522              -2.0206400629127637
H              0.1242465156149775              0.38635476996061197              -2.5160414889967657
H              5.130101838828109              2.2190198797040397              0.8153036291407565
H              4.574238156337334              2.6659911852080618              0.5433975217445199
H              4.275259456708573              4.693705710180827              2.75065365721561
H              3.9778935140342178              4.268655914636644              3.2704871445820634
H              3.0794974352743076              1.319835844463137              3.0034673868025474
H              3.418751023685877              2.07486748858153              3.178719102718804
H              3.020416552096129              4.4578327573273855              0.0836305994451849
H              2.479311350918813              4.507546382179762              0.6027425579761135
H              2.372092998848434              1.8935253598384625              0.37503804028220933
H              1.9210058577169151              1.8896501806726687              0.9599756491067782
H              -0.21435899869674788              -0.04758966643271312              -1.8420807558072152
H              0.24967391062807245              0.3058907053258521              -2.28001031073297
H              4.719064269479699              2.2401693112838292              0.9463643998540002
H              4.68022396048591              2.547576897595774              0.2779127668434805
H              4.411402258916353              4.31174218928815              2.923389971836267
H              3.968938006059897              4.001272711498303              3.425903336953349
H              3.215420243820301              1.2921004431950338              3.371506863458638
H              3.116795523714634              1.9549117601531634              3.1875865039988174
H              2.8674680424302634              4.589174437057707              0.03401889067019894
H              2.7389283098721773              4.155050316974603              0.6106628625654869
H              2.3200502690429574              1.6013464029277789              0.670152202728787
H              1.822524211629193              1.9446067785168344              1.1165384763463442
H              -0.26985253409065996              -0.051380009859109226              -1.5429142946235286
H              0.13147207075181938              0.18372441730088418              -2.113692598006613
H              4.810095388710569              2.060514316336491              1.1487387518612928
H              4.736210737748555              2.5622929877527985              0.6042593710470685
H              4.563095354742149              4.299642476463014              3.041874835177949
H              3.9676575673060124              4.098076634810786              3.4634690052402015
H              3.080602218969202              1.4651699580170978              3.273673905433317
H              3.160338057281565              2.176845059110111              3.2560495881347835
H              2.863605650345849              4.596282773637289              -0.030891067289072198
H              2.8629535817510114              4.26387552501688              0.6512371308739093
