72

H              1.3896089601618598              0.8221681640354452              -0.5154612872078401
H              1.0300576302248936              1.0171451225558057              0.11455228125416615
H              -1.268340319229249              -2.4397248369415907              -2.0004128172480393
H              -1.8233182291211834              -2.7643489251837785              -2.241933400580451
H              3.9573589358760475              1.4611913936297531              1.51171724720697
H              4.520917059924952              1.4325574218756307              1.0214886731973316
H              4.005133541144556              3.668085615371481              3.389807023200848
H              4.376702872171235              4.047618535548625              2.865237852505655
H              1.480088234645764              2.0651462392781776              2.6188599733401565
H              1.2111216630306794              2.476516868447854              2.104424951635739
H              2.918802759948199              3.917578309147973              0.10639948202342384
H              2.298458880446623              3.5461665916334115              0.1174223926956025
H              1.2601129580329882              0.4649785379163728              -0.2232270129053063
H              1.0042158363483522              1.062385572926227              -0.08036381317918115
H              -1.0097799289117968              -2.4365909386961344              -2.125579237400768
H              -1.604778732296799              -2.7395453704921016              -2.2892780807831508
H              4.00745418206102              1.3974592450654164              1.4700653830553896
H              4.587097487693767              1.564275450999621              1.1255641170387423
H              3.864756446659293              3.34375635631266              3.3276873838195447
H              4.021318148370601              3.9973139026788163              2.944686708978705
H              1.447667775192766              2.1966904644898624              2.3181265374850644
H              0.7791734224162653              2.3596629716159336              2.369794295885013
H              2.9855157987019307              3.6629165074642835              -0.18974620198912748
H              2.4065633953999392              3.6167538622621604              0.34092202972795876
H              0.760489412981357              0.7634481483873322              -0.4440953095411962
H              1.257714442328916              0.8188020270301624              0.11605734181966051
H              -0.8736969701631666              -2.5215617685256753              -2.1180818838502384
H              -1.3887124987064747              -2.9226890509366203              -2.4956198927001405
H              3.9683681566550053              1.3928704668232752              1.8001743424231498
H              4.467540874774506              1.4614166150494576              1.2735167376248897
H              3.7872333183087292              3.5347596178550544              3.2609360266321152
H              4.141466788936603              4.015183841735639              2.7990078732089643
H              1.7212861394027181              2.1910874417003194              2.4153223974563414
H              1.0227238842406825              2.399873534009237              2.3352781062658767
H              2.941740636562044              3.1145121741199953              0.010081409518650086
H              2.4244686514129787              3.5780705866064277              0.3073044903519072
H              0.4421347840478753              0.5810257055604565              -0.3607213860860392
H              1.0147310308686661              1.0390268470332764              -0.23407698833926782
H              -0.9075482682225775              -2.709069802781194              -2.3031068610126337
H              -1.599192934269045              -2.840012258722163              -2.4332266904726234
H              3.7825409965787054              1.4157245168712809              1.5867464623455214
H              4.3012064718718              1.5310295829215486              1.029089906347965
H              3.724775720083731              3.8996496104346328              3.3387399297739484
H              4.13095558970981              3.8381836820555946              2.6856223235075873
H              1.9072161072729386              2.248724846275523              2.2034790692915815
H              1.1443153435944222              2.360640983529391              2.38889072396935
H              2.8635171658983625              3.618503018404361              -0.07376260565100357
H              2.5041750703701884              3.526717451629977              0.5629938573316957
H              0.9686585597505266              0.617741020404687              -0.2639728200886551
H              0.8485613679027988              1.2615171823893434              -0.0026987417317232954
H              -0.9439622166287943              -2.6640005538875764              -2.166255016875973
H              -1.6235055549387485              -3.002270231022465              -2.3376360209619387
H              3.7709296743221383              1.366985903645529              1.486077163193289
H              4.442191939939766              1.1154629538778573              1.193344520517408
H              3.92309860974872              3.6114392592082263              3.4609024270382225
H              4.345805585547205              3.855217087784541              2.912281330008365
H              1.6269590384593449              2.070729135790033              2.251927026436336
H              0.909328867685323              2.4937502007334986              2.459791819207372
H              2.8360692168181867              3.9153176603100888              0.204280917550538
H              2.18342069267556              3.722319697222189              0.5501669698958997
H              1.2861508164407047              0.8294261955558321              -0.45187804635959594
H              1.1613707790198708              0.903571815231289              0.2666069323795821
H              -0.9529432545742811              -2.5402770244377746              -1.7745275501882365
H              -1.6229880823020224              -2.8934316593601954              -2.131399448037904
H              4.117246967779135              1.0343052373692692              1.5814802051790613
H              4.541702788108507              1.4652927693460431              1.281816063079896
H              4.20053931688757              3.701636194139611              3.4889413563011074
H              4.348681949974034              3.843576006171147              2.802681745803171
H              1.4180185257784983              2.0920786891876344              2.5551051304221097
H              0.7872819352337891              2.4948761170212883              2.3849159284035397
H              2.6391230699009416              4.088895145571149              0.4320653616972257
H              2.1750403836224423              3.5585232336445425              0.18833682763850915
