72

H              1.4729705852715735              1.59050489188659              0.15356099523255323
H              1.51408947603649              1.1108210295337908              0.6787760305051384
H              -1.3502806351088246              -0.029590787016296884              -2.0072404422836154
H              -0.5708411048742622              -0.010450928044838697              -2.1137322537082617
H              4.09651818774608              1.7721608186848172              0.4747419177404893
H              4.273341575337462              2.511429485048747              0.5019866554274154
H              3.7310986728780597              3.9577919325353226              2.5171183162575956
H              4.083472127794002              4.526331006847328              2.9160978703499754
H              1.9790623104847065              1.7815193045800652              2.713927043198839
H              2.6254684806292956              1.5883135577222576              2.9314960605139797
H              2.030038996375787              4.101264985929633              0.30926467780309713
H              2.066631271572257              4.465241042885509              1.0340518109344874
H              1.5932187505205906              1.3523028476534453              0.2559945033701885
H              1.1861080367823857              1.166241057698168              0.8897255450481306
H              -1.340281134983301              -0.041717519181118844              -2.2350861709830365
H              -0.6222955247095531              -0.20757648613595142              -2.122296690180965
H              4.370760292634375              1.7442870208070567              0.6031575513321554
H              4.721109000299593              2.3943847089135946              0.6772555179824944
H              3.6289185128405688              3.900909478978744              3.04818095598701
H              3.8859598534506303              4.620942381009806              2.8630676217236335
H              2.276390739630419              2.121835154405264              2.3416041622878874
H              2.3874594457277705              1.6693407933772777              2.842627561935364
H              2.360695990202648              4.040449007113348              0.1807105759178364
H              2.1249368893792364              4.313345528819019              0.8093677109664844
H              1.5729866923645024              1.8035311312530322              0.1359537038749203
H              1.3028259068984998              1.238772894106405              0.46230981443345537
H              -1.1228076084382983              -0.35300321377526517              -2.3576869814604464
H              -0.5088866311756484              -0.1119989867896981              -2.171407798215093
H              4.462906645810662              1.7433704057366872              0.7087044379471774
H              4.801731749005383              2.3139386724200603              0.3772981745243233
H              3.5003764183950836              3.971465774513562              2.964400259803084
H              3.8947154653911964              4.627113777985074              2.9314664691603456
H              2.1519061695489636              1.8368845433090295              2.473335035755527
H              2.1889938446423804              1.9842268376484247              3.2259034725527886
H              2.423293160080677              3.931054759730711              0.17081762885567603
H              1.9411169826681993              3.868245172225775              0.7100620715488242
H              1.601242093556372              1.8343404996439396              0.21335087735825023
H              1.223752188193721              1.216336120338011              0.3305954438515192
H              -1.279815954226632              -0.295756658235564              -2.3346925278398576
H              -0.6292116161847137              -0.3699985343217914              -2.038360509603123
H              4.21173833167485              1.6781326221558477              0.7467117394046819
H              4.590221066554234              2.386549044489497              0.5126532093420165
H              3.551150999641201              4.191886470586666              2.9476407555355806
H              4.071025446977759              4.656482068094549              2.715559600103197
H              2.2736123738717153              1.7003063335633468              2.699888191349238
H              2.379520323918221              2.0151220689744775              3.3777148761022184
H              2.462047560503075              4.083782445148763              0.5289493899783204
H              1.7409805737360193              4.113279631718081              0.7632875317361171
H              1.4664548940314595              1.8661307039661952              -0.03487454270026703
H              1.2187222540882223              1.3012706189055512              0.3296270315985998
H              -1.6363999618248621              -0.34664498868463417              -2.3030318812637938
H              -0.8291539131545157              -0.5003590415830861              -2.2498533852874694
H              4.419428928492616              1.7326434479700517              0.6802481122602778
H              4.51575775862999              2.4307441178677305              0.8415493211033765
H              3.3989361730322334              4.316634777364875              2.943974561403801
H              3.9327960346350554              4.4741873981148785              2.5165432471700306
H              1.9095501610546284              1.5930187862282625              2.706826877708661
H              2.3248812420280225              2.0985350917051098              3.182652187814167
H              2.3956881915374706              4.207435462275188              0.600452122407063
H              1.729122762103312              4.0399742664655385              0.8446251734836314
H              1.4099273833364672              1.7848873879363123              0.012561855150042869
H              1.4801001655818555              1.068095959905725              0.30989696218359536
H              -1.5656596256184856              -0.1610277455166041              -2.2107970678181297
H              -0.8483599938981549              -0.31710573571972284              -2.5347401236948963
H              4.244359178068752              1.7664645221767212              0.7854912912565929
H              4.433859763425731              2.444473536474875              0.7294314743729476
H              3.530907132418542              4.075197931844695              2.5399062706225477
H              4.026957584015984              4.592174961162403              2.8383763992014264
H              2.024405872841298              1.5123108135900218              2.638360673898184
H              2.358733241353124              1.9190487256235045              3.0284775563062976
H              2.084958301421724              4.022027038420321              0.4729587587897389
H              1.8113800451059625              4.327806730271062              1.0664906463002952
