72

H              1.4622106777913944              1.5826594027471044              0.16053629845146722
H              1.5190406773146372              1.107523510704256              0.7278479674105175
H              -1.4374797415273783              -0.003756031856876567              -2.002408076519906
H              -0.5667177089496183              0.009215747224387958              -2.0793896575053044
H              4.162411006627001              1.7794191329816502              0.44667048417360916
H              4.263837980309114              2.467023023679655              0.44901881294075346
H              3.6917998122290365              3.9771642208730245              2.5334096595454927
H              4.067696525928877              4.517087241261431              2.8899125704339745
H              2.0268084416673817              1.7770484158051518              2.7225882637350014
H              2.6120517320301686              1.5722565102807826              3.0186279256495285
H              2.073966949328599              4.091414426841964              0.34088749858514
H              2.058322941033919              4.479237112469062              0.99556758465537
H              1.5895284557412694              1.4767578942852906              0.26443601788679627
H              1.1294783116070044              1.1516626179579617              0.8459658699577828
H              -1.343498019529918              -0.06851498957759747              -2.2628928503363306
H              -0.666433023931185              -0.18240640718510384              -2.1483329978135854
H              4.2890212877820595              1.7701383497855698              0.6731399714551122
H              4.724174751628099              2.36102415458931              0.6401223751278686
H              3.554783094570033              3.9288013446346937              3.0232585327919854
H              3.896434169562928              4.612098627772032              2.895727326089774
H              2.2696807651702935              2.123545036573117              2.355349769400765
H              2.42477590432875              1.6357195825276674              2.856367776314024
H              2.3901360969039573              4.101386013751329              0.1625552549203197
H              2.1137252134970983              4.332124664801949              0.8085846546668181
H              1.625291316737229              1.7607301099203978              0.10444711640782765
H              1.2640455852312775              1.256892010865628              0.5029182538510175
H              -1.0979093915939706              -0.35583946140026107              -2.3438753361596234
H              -0.45690095209744735              -0.06993130832548784              -2.222814465328272
H              4.462146472548145              1.7815680231617839              0.7337598212335159
H              4.719123701514121              2.337487375935253              0.4790576524392183
H              3.5292547777126893              4.029975147093629              2.9197825061765887
H              3.8434737269829635              4.628703781878844              2.9359641848193188
H              2.1088186238189977              1.8438780763555527              2.5021420914286816
H              2.2671088682659946              1.9599138065012207              3.1862212005127075
H              2.4208114982586224              3.9132689493787693              0.18142868319910446
H              2.0071434461841235              3.859750427862296              0.7322348555573192
H              1.53526769418657              1.8551545280838928              0.21284531918909022
H              1.2695075131839975              1.2414003747623354              0.3330774676249908
H              -1.314334723352019              -0.2647714359007469              -2.360440927546521
H              -0.5420246031437915              -0.35522824096408107              -2.0791335072682195
H              4.345720406213814              1.7114738447726676              0.7015864850210417
H              4.611904726459241              2.406855203584476              0.4604871665147536
H              3.5536567265606687              4.230126417122164              2.921762124461255
H              4.092017167406937              4.69334451316913              2.692725772283298
H              2.3668365078386078              1.6857454411607968              2.7123936031617575
H              2.3572934352878825              2.046215629361074              3.3080026296251157
H              2.4895699159050406              4.072935688886807              0.550983782851497
H              1.7853748521853978              4.167346070523229              0.7312563108629158
H              1.5108005206177872              1.9262297258330665              -0.003509500455649271
H              1.2335883358269435              1.2424657704610598              0.30573892576377093
H              -1.5583664973801616              -0.3086605076567901              -2.294018043652972
H              -0.829305940740386              -0.49727603927734904              -2.2529977619621366
H              4.338103957825536              1.7517871747530043              0.6329313327057771
H              4.534483678357966              2.41719871030351              0.8308701947051753
H              3.4213105970045663              4.218408422839484              2.995229628389908
H              3.9450207418357923              4.493560414812146              2.5895869688123416
H              1.9497275330804507              1.6179461077419088              2.68515980145133
H              2.345358525038296              2.104352876789532              3.181441045069752
H              2.385096577175935              4.2469827460039795              0.5581662119507586
H              1.7369416323677314              3.969178519770746              0.8342364804621827
H              1.3998889742789375              1.7400027149717496              0.03167208994458952
H              1.5246247033288718              1.0883110644927805              0.403335231417953
H              -1.4633934515498694              -0.17670316920979043              -2.160479493500646
H              -0.8586529359053857              -0.3000851237995853              -2.4733812474182377
H              4.297463283492769              1.739265282889838              0.7963191308448008
H              4.467523145357541              2.4523855116926385              0.742458881853602
H              3.608760320314124              4.067577191289166              2.4994359731602622
H              4.0374043364760315              4.54735553536105              2.870764074980826
H              1.9766878468073696              1.398656522826147              2.720403403736804
H              2.3995969621818087              1.9380897466114513              3.0672773916914995
H              2.086828547399903              4.057394175742838              0.48055468345858177
H              1.8485730640329312              4.327812222448268              1.101700995060983
