72

H              2.195202538723379              1.3527802402942048              0.9451760405185344
H              1.607433697826364              1.723821076361278              0.7883448918434458
H              0.41868021261271676              -0.7578624673871266              -1.91030792088259
H              0.320380748564656              -0.0626367914562109              -2.0425671837283903
H              5.697194273174044              2.685549951586564              1.3549040293907493
H              5.26121117248675              2.0477926144890826              1.3129495515674217
H              4.013264609681935              5.01728064278247              2.940069764780059
H              4.403589753061415              4.4466751653921355              2.9197477558527862
H              3.0994632588529805              1.5028572219963356              3.1389784189932897
H              3.431547611861174              2.0983297477757015              2.9634884920704
H              3.3946436331195557              4.134474446046754              0.3860524607610494
H              2.952108779540664              4.59029304723335              0.7178467254239941
H              2.4851101218074123              1.3619912940899406              0.8586283676556603
H              1.9458270430387472              1.7880235140021112              0.6525844200869421
H              0.403748670333818              -0.9050679934958036              -1.996065829997164
H              0.23123310433625352              -0.07683541917322576              -2.1297073530625874
H              5.414512725093249              2.6369353296386038              1.3131313446697424
H              5.244248961613995              1.9607218670344562              0.8903383540992835
H              3.8511429988867167              4.70949889390184              3.128279661352133
H              4.298582334774691              4.290060322135117              2.7858426405559973
H              2.970682569736773              1.325372899953319              3.298976329196858
H              3.1716141448777484              2.0365441169616796              3.1946058910952373
H              3.1828830244024537              4.02237404316808              0.6952417537624023
H              2.5868901844950383              4.457265988564891              0.45170743258228185
H              2.3814585092594482              1.4424811864972427              0.9436272367090462
H              1.7101126936134277              1.7994805083022645              0.8819571786718818
H              0.4593337151867972              -0.6019635589101658              -1.705164685671265
H              0.3439971907529548              -0.09503486157167781              -2.207171712316112
H              5.57396201918196              2.448416590343549              1.5030598696777004
H              5.271367471027383              1.997111080923456              1.0463398322721535
H              4.1051060030156385              4.485608547810888              3.230770126271678
H              4.261876850265712              4.246956765644765              2.5202824803248403
H              3.21046462879643              1.2941078636903471              3.4169896996896383
H              3.247902985710388              2.0187095096780356              3.183665455431574
H              2.803227538164727              4.156756702931873              0.8694168783938395
H              2.5702540201992607              4.7061680993326584              0.3905668611394954
H              2.241714025823208              1.6474550672667416              0.5386244119579614
H              1.730224853127401              1.8979242283041764              1.098623691803714
H              0.46855397001173227              -0.435498213057797              -1.7520103289153264
H              0.3738244298657464              0.16105065029764729              -2.0344670421986066
H              5.397921765933304              2.53861204233507              1.0806009138370463
H              4.933330727012249              1.9664664962005947              1.1542059636858861
H              3.8859111004194724              4.49885610318733              3.1095109523888453
H              4.318953413382204              4.188426634737704              2.588325308315312
H              3.7925834187312795              1.3814203619293528              3.3301167875625985
H              3.124078340526795              1.7436208310062027              3.2157565586267016
H              2.7877527833924804              3.961980534622524              0.5580317025607537
H              2.813535245984657              4.712716860473052              0.4359512900119028
H              1.9541760333184781              1.6159497956242792              0.9528153837710746
H              1.4522903035978332              1.8482634116264252              0.4943242064848103
H              0.5591088711832432              -0.5194246302603598              -1.8417760240294438
H              0.6596616104631284              0.2706598662712092              -1.9952649487269973
H              5.356158030038794              2.4315316805720566              1.4794379351486797
H              5.01657746423276              1.9684478440270143              0.9505543237571763
H              4.094751276241354              4.84008621581065              3.1236962033628015
H              3.9974805032240286              4.191885618076825              2.7816768020283065
H              3.439732802985963              0.8521899309174592              3.2111786856110984
H              3.3962357216753483              1.5529781375959701              3.6215765170306717
H              2.91710710329249              4.0082429311013605              0.599315628405827
H              2.9932562714098285              4.771968433625307              0.5894561699961921
H              2.155842835332766              1.371752077198962              0.8564222489245871
H              1.4650345298695533              1.7397521815225294              0.8660257738957641
H              0.9478847856439848              -0.656247536539717              -1.7775946065366326
H              0.6159151300529356              0.08969254767007781              -1.819616907341056
H              5.6267135733768425              2.479634472018745              1.4269944779284474
H              4.914341765693584              2.065946470962104              1.3841815486948073
H              4.256927470029356              4.842407959627752              3.20483166322135
H              4.177546316392999              4.336859671625202              2.714831110206609
H              3.3433024109337084              1.262551572995079              3.5196953015880132
H              3.1852762895410685              1.9348018850762072              3.0433009872583505
H              3.35514072363894              4.099007668029694              0.5157206023005899
H              3.071544251002708              4.7575955928779425              0.5664308624368032
