72

H              2.537668935646179              1.405814280216239              0.5981191363568923
H              1.9530149788305466              1.8929264177024911              0.7299984036825274
H              -1.495000868170581              -1.4024116522220953              -1.9138803633164674
H              -1.2293241566344568              -1.6340144400046377              -2.4787839486096828
H              5.066300268722875              2.261154253301704              1.1796690801487044
H              4.882682932105235              2.4135020409809633              0.4682707114138006
H              4.394890593225887              4.7092843816220435              2.9628561584637176
H              4.606732317464989              4.010599438641033              3.0446003894017517
H              3.5324896792100207              1.7563047069093036              3.4937794962458706
H              3.0537044108916276              2.240010960146252              3.40566944312901
H              3.126492241752459              4.338102763070309              0.7869198201842339
H              2.5057437560780196              4.503421392325618              0.4404468685753265
H              2.7234443542474764              1.7641132429664792              0.7375395062001027
H              2.0104564741986817              1.7758457656623607              0.8795282070549694
H              -1.603511400395521              -1.5535197233688207              -2.0033114479559333
H              -1.2883847784571631              -1.7668872486803666              -2.6947572873035717
H              5.003496831109548              2.3937444181638705              1.186556840997984
H              4.980059146150096              2.5146057385353777              0.46694308982995036
H              4.512313793674576              4.574825536797098              3.1643767838144736
H              4.514153232313304              3.926159936705625              2.874150734474678
H              3.3221484486229813              1.4527687705636603              3.3131294360079213
H              2.856665948463534              2.029502274255157              3.3911948071313494
H              3.1154044781736996              4.532093922849869              0.721275314361839
H              2.4926243881909094              4.263796720232007              0.4671367390654542
H              2.51729262850815              1.7261505770331245              0.7038940568840287
H              1.822512131364574              1.854621388382111              0.9820525575380228
H              -1.6775884087904098              -1.3851419396408855              -1.8703697710893732
H              -1.1512505091894383              -1.562993702881302              -2.5265522900600126
H              5.142162981325884              2.34257325577608              1.1471501997018034
H              4.815308542633169              2.4535775465239387              0.5002431702190241
H              4.620103140241788              4.607666816218074              2.993848220680125
H              4.7283911166451205              3.8895437414010163              3.1986896144480625
H              2.9078558947439177              1.6581720204506418              3.7372109252574037
H              3.064745998093215              2.439531907457526              3.395320071056974
H              2.9727021899373027              4.38601309264041              0.9541420502746586
H              2.701396335533752              4.253309371399543              0.24645919707980382
H              2.3711738364246235              1.7243644409952017              0.6118529078437926
H              1.7187346224954305              1.9083272537474492              0.9985296562593116
H              -1.684406001964163              -1.2015791745064248              -1.7708691780423365
H              -1.5247482470179627              -1.2196226247505741              -2.466566206201768
H              4.812257283056464              2.363459631736693              1.1562303097197133
H              4.920139559890318              2.5400272543637783              0.4286651374965563
H              4.577653493327462              4.736981724562943              2.680231141531167
H              4.857940160919046              4.234076733810994              3.120191920043409
H              3.513135315915528              1.593672979781969              3.5219269605192487
H              3.162621592389872              2.2514938280970274              3.8427143106767514
H              2.7545200057043107              4.537815860149431              1.0448798438999374
H              2.8978354583237995              4.503608527329389              0.3006313347832085
H              2.3046005555890217              1.4252422166164833              0.46255181328289907
H              1.7402878384411076              1.5704857523030524              0.9356402560244285
H              -1.4558570449512018              -1.1317540384298304              -1.768070165623622
H              -1.332463357120644              -1.295909348292123              -2.534075098793087
H              4.9972449619753965              2.399891907725961              1.1684543355147818
H              4.739670101100443              2.29586116589453              0.4729120471561299
H              4.261332920666282              4.787416261012151              2.9350558925693453
H              4.579411205080422              4.139763209163949              2.951067562326162
H              3.710361142459975              1.952873483491214              3.6302380852944967
H              3.021223396675298              1.7245082806955832              3.2720561334872906
H              2.985697756219623              4.332697541857429              0.9712998486729241
H              2.88644418562072              4.407520406941868              0.26591913011520335
H              2.3517881003594976              1.4221542247513832              0.7763205191421487
H              1.8495665656206464              1.9150311897448191              0.5986488598014816
H              -1.2120490183512873              -1.362282479004222              -1.8241185910938402
H              -1.0432178242425996              -1.4674231684538142              -2.4840613112539356
H              5.031754703003535              2.357669683719823              1.2384251942367037
H              5.057058066220737              2.212264013775773              0.5385968208043682
H              4.2992836361686555              4.731904274272271              3.1272716171586823
H              4.62255905470137              4.039816695785027              2.9233512865716085
H              3.536824279559228              1.807759362868775              3.654195073515865
H              3.011344859319711              2.3393142605158035              3.3457013043274584
H              3.1820452868629543              4.562507194603209              0.9181365564299311
H              2.907853391693196              4.610731925437615              0.30799512556245506
