72

H              2.5290374189349834              1.3890705762606228              0.5935646254320188
H              1.9551238190455225              1.8949558194428375              0.7329722443789904
H              -1.492694086919571              -1.3928270254140465              -1.8886942016466521
H              -1.2265633002819845              -1.643306976984142              -2.4788878715070695
H              5.06356409900237              2.2724536420961914              1.185989424686582
H              4.880639202864413              2.416735282787938              0.4659788400154202
H              4.414377321546585              4.698828600789575              2.9596109318292405
H              4.603568027384766              4.009794973660824              3.0434299918502723
H              3.5289756714913705              1.772943051256594              3.4938444030951916
H              3.0495306037695              2.2488164750942228              3.4028380258323554
H              3.127497478295471              4.350105317211535              0.7774131421745244
H              2.5062004265716338              4.51602094353246              0.43529943046853786
H              2.7259351847850506              1.7580158404067223              0.7425027909073492
H              1.998482362159816              1.7699102396878068              0.8711884556014524
H              -1.6103645872904842              -1.5567776047850728              -2.0103341326785893
H              -1.30149319133274              -1.766458824996249              -2.6845282635314343
H              5.016061457454056              2.39512019705759              1.1869849544148972
H              4.981389980898203              2.5137850373970254              0.46766347453875345
H              4.506665227361516              4.589281587708767              3.160966297363553
H              4.50826039191353              3.9231876947594664              2.868189189214631
H              3.310082500878279              1.4532409709648788              3.323637636672999
H              2.846188049053954              2.033357490960664              3.4024752696633964
H              3.1131383449639745              4.543898768359125              0.7193895957753683
H              2.4931777488878146              4.254142154337128              0.4541013135858457
H              2.5252818742989396              1.7234929064023803              0.7064928543021101
H              1.8274915857758858              1.8302616595599355              0.9708554894774243
H              -1.6712312505502174              -1.3792637964036465              -1.8870979841642073
H              -1.146632624822741              -1.5703961169215084              -2.528718095343284
H              5.155857671120282              2.334250353940017              1.153036118653664
H              4.826157022271964              2.465347619891415              0.5055039942681636
H              4.617606312130984              4.612148393600818              2.9980466920129802
H              4.720074492094797              3.8944014990153373              3.1930381734113484
H              2.9026632919066255              1.6613845533187352              3.7379055058198416
H              3.060603469431752              2.438014087013009              3.4037573250537765
H              2.9756111915085484              4.374795960464575              0.9424582556168927
H              2.683396759163646              4.243082218046727              0.24909110696941705
H              2.3636296862588524              1.713606708052508              0.6129614017009234
H              1.719578679496096              1.9137561138848465              1.006919227681739
H              -1.6689593719096383              -1.1948207838735034              -1.7670174712425197
H              -1.5106022913230301              -1.2171415448859078              -2.4712572769091494
H              4.794877147402671              2.3724631714682887              1.1591126487746446
H              4.9338541694456906              2.5414143775688585              0.4130174236281364
H              4.569756647895801              4.744084141903403              2.681982732560768
H              4.864031298046634              4.240819211147395              3.1239683921156205
H              3.5143150850743767              1.5848925161537595              3.52475107750883
H              3.1745923578059796              2.2564614460250954              3.827797644403247
H              2.754737151741609              4.533812343647184              1.0504672575322915
H              2.8920124383851924              4.504123962797752              0.306348187859947
H              2.3115977602207596              1.4152296360284222              0.4624807514883259
H              1.7277030629478713              1.5810212994142883              0.9327093077634241
H              -1.4463855635680942              -1.1406916670342298              -1.770697415018511
H              -1.3278839903964197              -1.2909112973487147              -2.5247421594640036
H              4.996548901637575              2.3900693221065725              1.168405748470652
H              4.734012521253092              2.2818199890200175              0.456176097162775
H              4.249133996716818              4.790680603576779              2.9287121836864425
H              4.576196563488618              4.133445897134506              2.9655553719374317
H              3.7056371515830158              1.9411168578564535              3.628977290510279
H              3.035950301516633              1.721256392137591              3.2729245915335463
H              2.9905530479896743              4.339180785070489              0.9742280602620346
H              2.9008452252129544              4.405731135735125              0.25941564756150154
H              2.3534990467027987              1.4313154337174614              0.755120537080132
H              1.8425497270947755              1.9200658857205857              0.6028152231830428
H              -1.2025178875530362              -1.3627541497678073              -1.8118189122406754
H              -1.0454763618273049              -1.4649938365148212              -2.493688596791603
H              5.0335825395474965              2.341865132054394              1.2556598617265082
H              5.072598641530326              2.2107777804398427              0.5575042019887001
H              4.305984254632141              4.722358686658501              3.1210615272351037
H              4.619581515257024              4.039520643217945              2.9136521984970547
H              3.537945597720065              1.8031121323480133              3.6575377662862336
H              3.0102373409002956              2.329923046415316              3.338660844519841
H              3.1922932371727044              4.562023890740364              0.9202209003050777
H              2.908404380416584              4.606977033557584              0.3067217348166308
