72

H              2.450147588085957              1.5156339699989163              0.783743595664766
H              1.675526092606183              1.605654982763802              0.6552022841952302
H              0.13745864941897704              -0.251207000717064              -1.9897746271233865
H              0.4180134945612031              0.26635017431469205              -2.3382026344955786
H              5.073533258157644              2.219492731649454              1.2289262453846013
H              4.944986638701628              2.702023729530112              0.6757319154510156
H              4.509615879129921              4.624380571366116              2.9638367656581996
H              3.935271797559562              4.234699918900853              3.1574900505639105
H              3.3206360451913337              1.512464193509519              3.267122001821455
H              3.2216234347489574              2.1768055599920113              2.960620502767848
H              3.0000780656370933              4.545471488128003              0.18981882751887597
H              2.7091626989688216              4.448742228703752              0.8298738622784747
H              2.3116312372276813              1.715813337312624              0.5643658717272588
H              2.0886044519438856              1.9007449374240253              1.241300885909911
H              -0.10274737063441239              -0.24345303458411208              -1.7487365495010674
H              0.24837372241144764              0.061135386577330225              -2.270166025062755
H              5.42601340346215              2.3044930141564395              1.1226182104821063
H              4.9116290712177815              2.5655422555445897              0.683470743809405
H              4.531943226525788              4.511315213175919              2.9571051730427187
H              4.030941915011857              3.987380412504341              3.1602101643640417
H              3.2254106499289645              1.7580922471455154              3.310659740486874
H              3.2033805582428645              2.2331904020876245              2.7705167333159855
H              3.241687540227293              4.343666952129225              0.20204309856325717
H              2.6712778445652274              4.473278045690037              0.6107994859021826
H              2.4187079789949704              1.714739603156316              0.5609998683233561
H              1.8750530202447997              2.0444316770841966              1.0136293707218607
H              -0.38225618998298017              -0.1768237157416034              -1.69475261000055
H              0.0276962529123381              0.21528503927700995              -2.2978969683670845
H              5.135447477138135              2.299332019044479              1.1928993234173604
H              4.912042093499697              2.3315180761117995              0.4358745505481517
H              4.206545536497503              4.431067140552417              3.02725814043123
H              4.0795701296923905              3.787723493157146              3.3182414931941935
H              2.861696075755771              1.7398052720978858              3.3496045533564605
H              3.5760124410850636              1.9155395002966162              3.0534364370408893
H              2.9848039105402973              4.240091680807913              0.0792992722371831
H              2.6251310456075765              4.315554981081005              0.6949639641764133
H              2.239307615810601              1.8638721528768862              0.5905229320199901
H              1.7907382027776293              2.2674258602233577              0.9116337077607222
H              -0.053689783965080194              -0.2273107407259748              -1.5243376554641135
H              -0.04748112502335554              0.3275709352478681              -2.113662167213817
H              5.056707309368153              2.2691005578510173              1.1981299429779417
H              4.715525026414609              2.1939809193013295              0.463123223147888
H              4.161998888428538              4.520119169866228              3.1718388393215813
H              4.163496450809066              3.814650979262296              2.9063754546076717
H              3.200593744365176              1.3647133083454932              3.6003245660056447
H              3.259175504868586              2.0386250775844186              3.2038458032441572
H              2.77324101700638              4.375543774527853              0.12950462886105304
H              2.8073246930468603              4.667714481840396              0.8286139214222925
H              2.227290083138006              1.8524695174417858              0.4735455566735072
H              1.5568454619139767              1.9312641766463055              0.8556573840877083
H              -0.20037626913558512              -0.25328229414727665              -1.8798049465845295
H              -0.06076097242719618              0.3904112384186473              -2.2056238572949725
H              5.24383228406669              2.27677429958799              1.2730556305621374
H              4.506376468380957              2.329198581393258              0.976751201748587
H              4.049094954800338              4.825626002840542              3.0374519345296465
H              3.9953414029076706              4.125358369994398              2.995655155923984
H              3.2115460531152733              1.5643012733835513              3.062863668580101
H              3.488657633622137              2.1789649430690616              3.171925904087052
H              3.056164573485622              4.278161255531865              0.2066457492044439
H              2.726959104777523              4.882197353865031              0.5115647170942347
H              2.306563917268135              2.0929218135133985              0.2382398200463746
H              1.846236895156236              1.707343127045771              0.6783876954531598
H              0.004703099649036136              -0.38387495900689583              -2.3710236244723535
H              0.11805295544448871              0.4037477952937275              -2.3213981860401276
H              5.24544938478842              2.582863776039005              1.1004158107566564
H              4.610093779385072              2.3164070357850095              0.8705970615174664
H              3.9984337076043923              4.980971382739114              2.902619435728269
H              4.0252522495286165              4.18583456299312              2.915112573724299
H              3.1503085932563324              1.4140154940131953              3.2735606547179787
H              3.379784221072671              2.0497021703357023              2.9292461506563097
H              3.2478933416772793              4.237225906286775              0.3222200782373213
H              2.6849871830812746              4.644749277079343              0.5383458760468393
