72

H              2.160170916922071              1.2963718948545784              1.2771977051418952
H              1.6527613306936104              1.4317598440050245              0.7622578381605615
H              0.23066372997959922              -1.1488525731408328              -1.8012079895136832
H              -0.4519940722677568              -0.8760615135557037              -1.4629774093909789
H              4.725773798055075              2.133058381591735              0.701343775473323
H              4.756750725209483              2.5077905731104235              1.3077467878760607
H              4.098028284187175              4.509797687144456              2.5928278858114275
H              3.989989576790485              4.955318575626875              3.2120465354739416
H              2.8414778087631416              2.773600622401081              3.793608183999739
H              2.5793905120950957              2.0214747753470177              3.963526162384248
H              2.7962728738697815              4.336998769172459              0.2971149785642855
H              3.4176690578705378              3.9439817182409076              0.5146461887563666
H              2.274394085135109              1.3251460486359368              1.168841536693377
H              1.684209077646961              1.4069654432013214              0.7480745632879142
H              0.24611848088449756              -1.1088777476071017              -2.1283378002567086
H              -0.23420426806418757              -0.8444576599436191              -1.6340380441463334
H              4.677648243376965              2.263732471736253              0.6415762217472223
H              5.1697107995622975              2.2334180980565645              1.2090601327963781
H              3.5625528370188              4.790705926840727              2.420934727817515
H              3.9740345102611454              4.8708068984338775              3.0646044399299592
H              2.3169042838017475              2.3967567726927306              3.610032848857698
H              3.007871160138098              2.2622316213234726              3.8733949294174606
H              2.643075346858098              4.367572895675026              0.6390564208137648
H              3.1142265019467477              3.8163627780995615              0.5151956064800338
H              2.470442623457112              1.5602226100235814              0.7214057985121817
H              1.808946381750643              1.4213142313821892              0.956718228323446
H              0.6464543091713847              -0.9939961862632501              -2.0639533759352253
H              -0.039630186354645804              -1.0428245684613426              -1.721484019578077
H              4.711354555691535              2.0624146535661763              0.6569405616808831
H              5.04599499827525              2.4360897782021143              1.2746361175047158
H              3.4626657413283044              4.491833234035819              2.5110289184721246
H              4.037214742623713              4.668042780257072              2.9217227006609523
H              2.591972468745795              2.777715616176368              3.5296012771385095
H              3.0022470809307245              2.4616239645400424              3.97664182132623
H              2.5257808822533727              4.3598053686903135              0.5674713239015251
H              2.9515439325594346              3.8577333021980262              0.21733654383239545
H              2.209790479290747              1.727451643565976              0.9902257931781882
H              1.790511848616981              1.1899696645390574              0.7924829157354072
H              0.6569632897114334              -1.1395374067958763              -2.1942307153314697
H              -0.08811056644577972              -0.7499301102249794              -1.845645388357496
H              4.763041311745226              2.397015851058038              0.7569193009964584
H              4.919651611248254              2.1407824023324227              1.5185719328324456
H              3.5520715346608354              4.575510424689746              2.4981559124929382
H              4.155455035735218              4.6419867650318025              2.8862765314571455
H              2.9711142012192897              2.4175442668836427              3.426806298605098
H              3.18470889918581              1.9342575937682522              4.064787026915142
H              2.485968565269482              4.310094587932812              0.579162605893479
H              3.005774803542516              4.127778796806351              0.025484022270294726
H              2.165966117351227              1.1815091834975584              1.1372943511964835
H              1.616565678210979              1.4984559179394155              0.902800405032768
H              0.7136629547885774              -1.1862800948648617              -2.004645740353476
H              0.2974367061320252              -0.8094055501455147              -1.6692306758198867
H              4.859424250563234              2.2196457224067108              0.5937223542571507
H              4.9576783597526966              2.148818128438629              1.3011554809007213
H              3.6127899542801183              4.36030638571909              2.8143539279837144
H              4.307005028173733              4.529056719438006              3.0325327333882206
H              2.986672533817609              2.1344916981552844              3.4292250110521008
H              2.8879234888990233              1.8329480732943508              4.068149398475041
H              2.9325619790504103              4.60503647794679              0.487019537561153
H              2.801358768040728              4.034418736593245              0.08723988004947456
H              2.0021926305968143              1.4389544861288937              1.1033067659602245
H              1.3350826275333467              1.8119382539819455              1.0314657552525865
H              0.5546201638038315              -1.2608115230196466              -1.558295201234152
H              0.03248371407426208              -0.7971966209095095              -1.568875841427938
H              4.875584571770947              2.210460245742418              0.7416236716328932
H              5.181571921547955              2.129696576267368              1.384553928512968
H              3.841891469492687              4.3753666814508545              2.835869014750645
H              4.475811896538752              4.703930928893372              3.133667680526097
H              2.6315636933001345              2.4439772163281086              3.6601560535828597
H              2.8844137007445045              1.9766304166081472              4.190946009646433
H              2.921954612770247              4.567503727204795              0.5872853491286202
H              3.253731585674917              3.9972487945198854              0.37588072403510486
