72

H              2.2179949144277478              1.9685204295768925              0.5074575382011527
H              1.6484531919532832              1.8147619215571649              0.9960418462072651
H              0.09350222711911467              -0.14887602965156035              -1.8685288622216192
H              0.3367811414704583              0.38584627519533515              -2.388536295536843
H              5.559823179603375              2.3500005526460113              1.0802012136347074
H              4.929892852897555              2.525372319914353              0.6465842250329878
H              4.306574714072686              4.676685978169739              2.924470213602712
H              4.086478169661623              4.04504507413179              2.7306741551353153
H              3.5929633072813254              1.3454300696694972              3.1844489218436087
H              3.3921400040544984              2.074932652859708              3.066403869826437
H              2.999756580710881              4.16789527470218              0.46679165643075415
H              2.6892790329521117              4.754438119817795              0.8132532435856984
H              2.310735598801672              1.5990803003785832              0.659909488622624
H              1.6969952448775711              1.9442703472385208              0.8183967248569219
H              0.1510157849888094              -0.24872514948977206              -1.7822026186678241
H              0.4860941901422317              0.40661751251187195              -2.185552028278892
H              5.0468700935747774              2.2730639829641115              1.32100607791146
H              4.752432251954989              2.5441713673978006              0.6063809579460321
H              4.389463093386234              4.281295510368702              3.013680242103603
H              3.85413232887643              3.8697354575354024              3.2386316946100444
H              3.441694140472139              1.399732036679628              3.2223717821594002
H              3.3837763701702626              2.0943684000378586              3.2054547005966705
H              3.129303821855665              4.170808978992261              0.1267259593990594
H              2.807599400630466              4.339207392668789              0.7868013980101448
H              2.2055113288748283              1.5091676401109575              0.8783257687153725
H              1.6619349793838296              2.0068370654477103              1.0895007088029012
H              0.23007681847882971              -0.30286398637264494              -1.6353935997483
H              0.35944994913035294              0.1824731562618284              -2.0631386007830046
H              5.3071701190614915              2.448111905636094              1.5494049058836425
H              4.975404459177931              2.277449208843463              0.92844055959636
H              4.508457049403687              4.486263717881831              3.0817517692284087
H              4.079246307739527              3.9051692930251463              3.0178413796269923
H              3.194354129875423              1.490649812017629              3.312531992644797
H              3.345303720162061              2.103669846510116              2.9716769194739077
H              3.3121610461561333              4.303464703840768              0.23235119065711154
H              2.949395805362934              4.549148612627532              0.835249682234065
H              2.2835969300264356              1.7358476530964009              0.5747921303483918
H              1.733454743760693              1.9351161911838597              1.109226493173381
H              -0.10164491603644887              -0.43020929616063563              -1.7525512392410445
H              -0.00987463442143409              0.25650127445117477              -1.9885775960650895
H              5.446788914534802              2.4770403540833263              1.083128237543692
H              4.906206736412667              2.1713156312442976              0.6746500098401723
H              3.9478242097364395              4.711954412055288              3.0258795564324155
H              4.274890282095843              4.073346510823264              3.078444288875291
H              2.9588771063601618              2.0794154565260587              3.2051954834281706
H              3.5226450822830397              2.1263820176552435              2.849467000292096
H              3.177075813417197              4.294700523636815              0.11142071618877263
H              2.91118287864952              4.5211967534113064              0.7275515537487561
H              2.3693218252805996              1.6765315390156006              0.6554490403084541
H              1.7488417682529933              2.0888069077349964              0.49832485885435585
H              -0.24522690111251855              -0.5630183134381785              -2.0563332657144686
H              -0.10488164597505739              0.1153013610909019              -2.3259037157526143
H              5.293660297608913              2.3560198330383786              1.3746222291219286
H              4.991461911455878              2.167171836632102              0.7433357717678092
H              3.8825480455647425              4.860534907093696              3.040636229489005
H              4.1136706685903395              4.164576299513233              3.039417703780031
H              2.949965012404855              1.5053713856257267              3.29714367173703
H              3.4350799738545756              2.133218112606615              3.0427511172050834
H              3.0490334447497913              4.305151984599603              0.3563634987294745
H              2.5875503895499197              4.841511120186349              0.4941847871035919
H              2.44737415412692              1.7000530045712636              0.38847187725086446
H              1.9691289746500673              1.599632316594852              0.9268926201767408
H              0.22273570377180688              -0.35667459393986634              -1.9928489829374636
H              0.08658718754883984              0.23065445579164504              -2.4087339643050556
H              5.435959140734957              2.3182346385966723              1.2279627112473745
H              4.62456574749859              2.3998518139290517              1.1026313090486328
H              4.215763466025528              4.661986111968032              3.1190121216528093
H              3.9839408337456828              4.248134068133828              2.6347497389260024
H              3.2506703100005794              1.4815744601869136              3.375173834083946
H              3.1507206971775923              2.031263627996449              2.9293655723615535
H              2.9798784102528195              4.219499567689299              0.5034544893053238
H              2.5349074562192464              4.796932213848002              0.4995545561364192
