72

H              1.0933663839982204              0.757333539983873              -0.5598286807737451
H              0.9241438995254965              1.1811883470304385              0.00448867979531189
H              -1.4537618971446262              -1.0592313064209107              -2.466474527825618
H              -1.0914077079508093              -1.3962448044883855              -2.033824614684069
H              4.046436860891296              1.6632863875485235              0.717582637787471
H              4.250393508034535              2.1657092571381944              1.1675364535887867
H              4.2432330385634165              4.449525057557745              2.9853576046717873
H              3.5921796502596455              4.152130606369284              2.8146533696135694
H              1.1235758853942033              2.506002111497245              2.8578760733037605
H              1.546625473462358              1.8851776676411072              2.727477816794992
H              1.9454432995095887              3.8204339668943903              0.25700806817512634
H              1.5080223074155927              3.8697381771730806              0.8779300831691509
H              1.3772360009120463              0.9144049529050714              -0.5564573755059423
H              1.0511462177136905              1.1278491925026444              0.017670320481918588
H              -1.5399370585829582              -0.9573000786216613              -2.2495997915056742
H              -1.21224726942698              -1.4824738521306515              -1.8696576775805083
H              4.1305374644235116              1.645659037000707              1.0083625274651382
H              4.2634886575004165              2.3161534131789296              0.7993922482782796
H              4.373469290187958              4.61252385921027              2.801910137131431
H              3.9552148178586797              4.011752180722777              2.555387779516861
H              1.5004669409728966              2.4202517325960913              2.894151282383967
H              1.4345153946147273              1.73185486068332              2.8455908738090665
H              2.005496787737975              3.8143459209292443              0.635916280568108
H              1.5433661123871412              4.2299364391982905              0.9503330158572334
H              1.3273281701259956              1.2470571672733166              -0.38658546281589085
H              0.8500722557020121              1.0916879445053156              0.03475101631638344
H              -1.7271088938848507              -0.9157712287437932              -2.234835843251472
H              -1.6673933766871112              -1.3723669553860762              -1.6592126481881473
H              3.701778673097739              1.7092057156545284              0.6336396131327222
H              4.066519942051936              2.1933586770677427              0.9988237892465062
H              4.077367429954356              4.335569354650818              2.962900122874697
H              3.865133996618553              3.7942466666883887              2.59441063995572
H              1.43661448381283              2.4556248277029997              2.7091808999409244
H              1.5211866705668387              1.7819528123610617              2.590392512393369
H              2.0605311310970396              3.9866670705234677              0.647236547183104
H              1.3869985991731169              4.121368861517738              0.9384025855587359
H              1.35116877880804              1.2140852692433513              -0.4652147309230296
H              1.092238275249712              1.1458331905930537              0.2564450247675474
H              -1.690728827867079              -1.1231851109885684              -2.3251349391528424
H              -1.6244639900721731              -1.272321881156996              -1.6851232989681693
H              3.622751819695409              1.7177443867462745              1.0005529586868107
H              4.332984148658242              1.951144673976107              1.3004260445229974
H              4.018832243658283              4.344838478791494              3.0523563176043487
H              3.859612124001536              3.923596612245213              2.491476618512602
H              1.2039179926719743              2.3139107835195962              2.3993978383975807
H              1.8103259558030484              1.95228640525516              2.423539981938882
H              1.9002434272443867              3.8681832661395448              0.5003160002763085
H              1.405986432688061              4.012994772815064              1.0516308533569187
H              1.2072035294945214              0.7655669272654335              -0.13465397699660872
H              1.2267236700085118              1.48289469673183              -0.23446691686353716
H              -1.7081697805656153              -1.1319151855389034              -2.5213963059443856
H              -1.5016246243847893              -1.0174295076112307              -1.7227726368510137
H              3.9450554601708294              1.4865889226472229              0.8228969272944167
H              4.258932310568618              2.1310795690270563              0.9604684359899708
H              4.0037803279350985              4.7214157860153545              2.8093084920910902
H              3.6654520171460883              4.179299168187397              2.618782913437885
H              1.3035217667257697              2.493896371390869              2.648440851545698
H              1.6305212169660088              1.729138040678182              2.638106316418367
H              1.8717667791402521              3.5998658291119154              0.22076594804240657
H              1.4878814887942529              3.956824344471735              0.7112154221579455
H              1.063247633293627              0.8725659181149237              -0.48156087055633656
H              1.0427274966683375              0.9052742327507831              0.27365530014427386
H              -1.7287110483550214              -1.1113082261091485              -2.758045935310121
H              -1.448216098392141              -1.2466243993720745              -2.0020508601382296
H              3.988185080185893              1.5377163051957667              0.7046052876752243
H              4.488818481995347              2.1268454058635298              0.7424723357353571
H              3.9728883218226674              4.772179938532588              3.0216345304664904
H              3.6510739424864744              4.252165596564956              2.591462256415633
H              1.4799952427828897              1.9584614785147363              2.3100580484807587
H              1.6761696988048336              2.4098423212640316              2.890540150610766
H              2.032164084687146              3.7846096806173577              0.2402658356021426
H              1.5610105426598464              4.242328386920621              0.6166315051878397
