72

H              1.341143754982101              0.8781705918792744              -0.4372391087838879
H              0.8966514210212086              1.0970955464548893              0.12815579684233439
H              -1.167626248707775              -2.3236510934223253              -1.9133373528661684
H              -1.7422710965127282              -2.7408383624310217              -2.313639831835016
H              3.940652919590723              1.5215310765198358              1.4943592669398589
H              4.380361346353092              1.4979742395291584              0.9346999211712594
H              4.127561092375927              3.6834892992684725              3.4132675408356508
H              4.393939901537855              3.9729481893699647              2.820542676850313
H              1.5978892413554218              2.173244295078117              2.712232947023336
H              1.1270993457055087              2.4641223030444253              2.169716757424357
H              3.0105600834321153              3.827536214543582              0.18772248616889056
H              2.3090907554334876              3.545041609713891              0.07905943308180331
H              1.2426664910905545              0.4479604290347862              -0.06720476985052373
H              0.8664034614358168              1.1637810615727533              -0.1811624210150413
H              -0.84720466580128              -2.495605308178275              -2.047667744078544
H              -1.6541722829195495              -2.724246710742103              -2.3209725306462445
H              4.043843400209895              1.4229918649328523              1.5780202447247327
H              4.700094408305828              1.6914502897553316              1.1143673891068204
H              3.932862931249043              3.390354553279946              3.382532314802337
H              4.088053947535239              3.8609050552120747              2.888707925758631
H              1.5061381373393388              2.1595218768774225              2.278237046328367
H              0.7014300650258749              2.3516385697705617              2.31400748892615
H              3.0428684477605925              3.6957982066077273              -0.12222771609163027
H              2.597500131292181              3.60845647716254              0.4001268100962145
H              0.7811990050896975              0.8835392403083672              -0.47032227464118437
H              1.202927620379213              0.8639448356307635              0.08478977838448037
H              -0.8009895369901049              -2.536805110626115              -2.1064452919988788
H              -1.3250214957793733              -2.923618230442333              -2.457760750357604
H              3.9002006654374712              1.4179997981215713              1.7669104914098765
H              4.440451412186071              1.3974089969127352              1.272613294659974
H              3.8661812348488365              3.418768524381851              3.2849676151822362
H              4.046196509039893              3.9423627120842              2.830300960041342
H              1.6528027046496616              2.15657617074667              2.45261743155438
H              0.9981221147878736              2.4135776352898013              2.1988803572229947
H              2.922518118641699              3.1253733679354196              0.0026135416272938298
H              2.4719987998804527              3.5226990636912525              0.4072942098286939
H              0.5094778629032917              0.5990550968933349              -0.2645714452860842
H              1.1286288910403717              0.9752732923760752              -0.20689114484688237
H              -0.8979169747334685              -2.7175272007513716              -2.1759609186897024
H              -1.6162670360621114              -2.886660446873658              -2.423359303633105
H              3.6775141303083996              1.5078802341035769              1.5754567218969373
H              4.241896858924008              1.4258978697786286              1.108800606248576
H              3.813400259097423              3.959952261119823              3.247284957410487
H              4.215075802285995              3.7513706668451894              2.726528902200581
H              1.7655627831413803              2.21260750335782              2.0520948816532836
H              1.2371744283191657              2.2817735789370053              2.5413189633495006
H              2.931024213476161              3.543270565959279              0.015366382346700333
H              2.4137866286054392              3.5873564818293624              0.5880359265713672
H              0.9168243424237805              0.5591553492972823              -0.2969729776701761
H              0.7971714263361758              1.2351589761250283              0.07580016464170969
H              -1.1268278333100075              -2.7050984684896844              -2.1969947516740764
H              -1.6917733182598285              -3.091024049779081              -2.4070083113375307
H              3.851551967549195              1.275626740362905              1.472493829728471
H              4.523799053443016              1.2016490929553418              1.3149453206063162
H              3.844698074795283              3.638628995900496              3.477969142644041
H              4.261104997167              3.9039315619709427              2.9534879794277122
H              1.4018345985240508              2.0242221732668106              2.279022970355965
H              0.9292829809260243              2.4531569897846004              2.519049711169905
H              2.768594384641122              3.888278152461427              0.11086835221414953
H              2.1979385738053163              3.675363119371064              0.49038860394351663
H              1.3374523193230898              0.7664847785838166              -0.43918531295964025
H              1.1350678812873916              0.8374958567406621              0.24533583158669528
H              -1.0181327995107083              -2.5485895458270864              -1.9898051667944017
H              -1.539312393140913              -2.9375916817202383              -2.159306887332666
H              4.138069156375689              1.0345220542794857              1.6357090584833773
H              4.64423490468574              1.4991410157460947              1.1558972352190693
H              4.109779680280691              3.6667802497973665              3.463445088137789
H              4.244642183612006              3.939535029969282              2.779015623947255
H              1.5160663504312846              2.202135142730086              2.460125092795081
H              0.9060765145467488              2.5595924712065674              2.3573322369768275
H              2.5897808155775413              4.171809308278848              0.3940460788153576
H              2.1807693475015606              3.56321375551574              0.21454008298836907
