72

H              1.5188410460864696              1.711002225281066              -0.19178476388925617
H              1.2648167390963394              1.1754164701361582              0.3225723059158434
H              -1.3297846300350273              -0.31431443183022784              -2.343848181429091
H              -0.596986554467806              -0.4865099269203404              -2.5479367555561923
H              4.293556906994476              1.8201429207133688              0.7630777072470659
H              4.734351341687308              2.4851232374866954              0.8306874586936652
H              3.706654211401008              3.9947087425657872              2.916353474058089
H              3.9637166574465885              4.703253896393564              2.7843869018739733
H              1.8163178986606028              1.9439078360415851              2.277534576923796
H              2.3440443065828114              2.041008569549509              2.7064717713260134
H              2.1551874282539165              3.9559312611939474              0.2594442038253864
H              1.823686766996097              4.063767199664182              0.956834592633049
H              1.518056638231067              1.4306422613751808              -0.21232000992891198
H              1.6611831787055376              1.2340611812052684              0.5193567255319623
H              -1.1833766748541512              -0.1472706921786491              -2.0525941602660045
H              -0.501125197682833              -0.3474433787491824              -2.1023619919084764
H              4.432204784291771              1.7607395869769173              0.372377526339243
H              4.401183492525506              2.444003691007666              0.6151723045065423
H              4.001001239124477              3.8268409425740257              2.8933409738211093
H              4.004422718036804              4.5659108186306465              2.8047749483224282
H              2.067347526308753              1.8440800702225506              2.4975866113103846
H              2.1842368427096504              1.9806995821413906              3.2340748040544587
H              2.0245417335171587              3.7359581380044853              0.296135420572181
H              1.7996915877774955              4.030362649850338              0.9388963901609056
H              1.494889086472453              1.6675240966705864              0.17519147757075643
H              1.4492598380199604              1.0003627712828314              0.516492762155944
H              -1.4160871224152283              -0.24036076100936254              -2.1459967797075308
H              -0.9749124679633714              -0.5414737843074677              -1.7825942107581445
H              4.268846052737179              1.6447838130370234              0.453031859329401
H              4.697770528369508              2.258002671852333              0.525726472924838
H              3.7065200127968017              3.97235647948358              3.0967058666482417
H              4.134234763742157              4.340059315190747              2.683829777619732
H              2.2951428981836535              1.8535585557639755              2.606604724859706
H              1.9522431481689506              1.8089418835323554              3.204157328350738
H              2.2257981170397247              4.135497673198038              0.43879332784726055
H              1.6576993692962427              4.339392133452432              0.789825587699306
H              1.7304944712165204              1.4532958779940603              0.04543276292668412
H              1.2172856132437782              1.1798173532378686              0.37422172939675646
H              -1.666812835356447              -0.4462920866671338              -2.341395760946963
H              -0.9875746956326824              -0.4543184412151845              -1.916595916397186
H              3.969041958982801              1.6671530931577825              0.7857584975939411
H              4.608544857828354              2.1362785065023187              0.9007852280002165
H              3.3790283368182172              3.9717322818871406              3.0732231342901124
H              3.836704854592306              4.367887199835306              2.720140331242165
H              1.7018161781319476              1.9510555307082373              2.5718638668216736
H              2.111066656610881              1.7275979510738746              3.247232553405569
H              2.102496933339954              4.027437617859771              0.29578847213787757
H              1.6817832828345356              3.9246440012275112              0.9191096840373801
H              1.5874846475789526              1.6584210542750397              -0.10418426944324019
H              1.2771638255792563              1.1482715021725356              0.4014104524558267
H              -1.630149546615786              -0.47501805415664367              -2.410745327890555
H              -0.9077508372099934              -0.28113245642481255              -2.176333626999932
H              4.2512251479439715              1.7277725362846375              1.0523174087347043
H              4.405939350768614              2.2975988431026786              0.5051159569942775
H              3.3591297705089938              4.439640671343611              2.6603128251416535
H              4.065325762592248              4.575881666242353              2.5297423892841513
H              1.8730029080838757              1.6218607416013728              2.5896770112158585
H              2.283520346531857              1.914544839519678              3.1717734750408617
H              2.0805949820305347              3.868394709461177              0.4912910067666277
H              1.7647265930114089              4.426972750579076              0.880865302065183
H              1.7085178319413044              1.5841200691223791              0.021327577170914668
H              1.0289644994786982              1.234116044418574              0.11680736489367552
H              -1.5941593564448053              -0.25401752291239765              -2.480412124079881
H              -0.8867273243620402              -0.35912635801889253              -2.306829615995376
H              4.031116957929189              1.8056086830006017              0.6111449246186659
H              4.294787445106379              2.465696667305689              0.7087844501187376
H              3.4640444010100495              4.381517365280281              3.069008675390709
H              3.8020373467811526              4.609187520895561              2.470156898614853
H              1.9778880543738147              2.2018312658646195              2.2598688278989307
H              2.3792764406712394              1.826469653695959              2.8647086470515073
H              2.2462169146660496              3.9162600886360805              0.3688954256316434
H              1.7089159309538313              4.2144649796127736              0.7747255000556691
