72

H              2.097871697081986              1.3302876139680126              1.3573323257933672
H              1.7058605630460522              1.4265565536394227              0.7837722508456374
H              0.22864763594690563              -1.1245275457835238              -1.7669071129835656
H              -0.41226940753133545              -0.7910307567310938              -1.424215900043752
H              4.656742886817993              2.188766520118827              0.5993113713230284
H              4.799185443261015              2.4528252159540087              1.2844706752354778
H              4.112700092146408              4.454087809783259              2.6432648575925453
H              4.022266294435601              4.976436497918884              3.173789316587744
H              2.8519692953912683              2.750402490261846              3.7419715513504834
H              2.686165575463799              2.10124898207387              3.9254558754723874
H              2.7823194621268286              4.364180749644998              0.3213210896404202
H              3.3514224530364998              4.006648079721734              0.5526174425400753
H              2.317862435613673              1.3505027425850071              1.1232271133637697
H              1.6019963178717564              1.4081821980715494              0.7748575719705966
H              0.21957859890736753              -1.0867325524661542              -2.1324553969913818
H              -0.21649832639474928              -0.7845244085704031              -1.6102927986021665
H              4.58513668529575              2.20963794856844              0.6093255451209084
H              5.1387686534451404              2.147436125261563              1.2093345429135773
H              3.469100142539637              4.804418601327194              2.452223238102788
H              3.9626245554156734              4.845964041779669              3.0958545502459045
H              2.380109158101973              2.451824574749184              3.5807826351631893
H              3.0431687376033683              2.1375630845441465              3.8658811647204545
H              2.635191829459259              4.337585417473165              0.5815825375066538
H              3.1370157501447817              3.8662584146732564              0.48178521967126764
H              2.514401373044119              1.6099852151464098              0.758182628989209
H              1.8107283517983388              1.4438829369552504              0.8885640012934983
H              0.6841258398325756              -0.9918185083380529              -2.080036625281262
H              0.07002347886928767              -1.0266130367392023              -1.7455532152735882
H              4.767141287417269              2.012441594026991              0.7478620062863025
H              5.022772178652072              2.424069909095545              1.3482580260516912
H              3.4956742890103456              4.534989616719283              2.4931875499383964
H              4.035623121701856              4.669844594949032              2.9148637308905534
H              2.6205455879315056              2.768445898827996              3.4873232738179962
H              2.9771488268258177              2.3959030509257917              3.995352149259323
H              2.5698039289875507              4.346632592869667              0.6034764169844467
H              2.9914793414790903              3.9044930337220918              0.16970668061625493
H              2.23601139362408              1.6897678425438227              0.9932665479620714
H              1.761159778700373              1.2126537659585632              0.7655299792949752
H              0.6524021812903751              -1.0882454106674377              -2.1279695115978203
H              0.006677387509756946              -0.7973373193131971              -1.850525419640198
H              4.797874216143975              2.459071460018671              0.7606748210363437
H              4.886899243871149              2.142551549468148              1.4675885480812783
H              3.5300559351816294              4.560986509732827              2.5440233609610523
H              4.234290767370592              4.666718105608403              2.8612566791157192
H              3.0568047409423382              2.398919116611741              3.4478888791066025
H              3.13130594055058              2.0632794635756047              4.006055648164585
H              2.5396995012430916              4.295191143110539              0.6228428751594338
H              2.9628625814689964              4.139571163929776              0.01272820874744267
H              2.2158167004565805              1.1758034019476584              1.0901355427985442
H              1.614124734657322              1.5415491101335064              0.8672226740673604
H              0.7385907471270976              -1.2585859497326102              -2.030454574075806
H              0.22203387907287403              -0.8415130452621095              -1.6837647134719034
H              4.824797003197488              2.2761408076017258              0.5883566040207235
H              4.969603920932572              2.1686022602682993              1.276519417581822
H              3.5803909228279225              4.349956268835367              2.785137603403493
H              4.294858321191488              4.508155578442584              3.038197943833916
H              2.9559406420401815              2.130617779457947              3.5127249360802044
H              2.853740502666942              1.792486328579976              4.131777372359457
H              2.9447567100110237              4.561926447380261              0.5287198495943591
H              2.813477864332155              3.9925059673776606              0.07575002023899062
H              2.023244195321241              1.3820357129839647              1.0681835102019055
H              1.3844566075621467              1.6784485882660714              1.060786203341289
H              0.5990984630165164              -1.2792061911620582              -1.5943878039671493
H              0.025621070305017875              -0.7745049903402297              -1.5925995673442612
H              4.893463382653686              2.2069708849039404              0.7337953323078229
H              5.2005135552273              2.14307664309336              1.4687407612344863
H              3.889865337777249              4.343818772028901              2.8248208685558094
H              4.429783802663931              4.671320854934268              3.1422256854473085
H              2.5934743355916514              2.3717246515672903              3.6651984729482012
H              2.842680381630178              2.0494946685167243              4.242254388583906
H              2.8675584361968904              4.5070783659513              0.619539278041264
H              3.2551801440990187              3.9785662424920387              0.3316958524105208
