72

H              2.435486120472425              1.519933815150599              1.0655879272551478
H              1.935267309928972              1.8157913934286203              0.6209865260954947
H              1.1118631632991631              -1.0311311015282782              -1.8191870259376621
H              0.443859141417512              -0.6910801293218589              -1.62616519049987
H              4.869014326060702              2.649400970764551              0.8127734005526448
H              4.878616497063094              2.091893141773819              1.2591186900854892
H              3.851968368246839              4.631017163002045              3.0780971351112187
H              4.556121930330543              4.826252423283058              2.91714328342676
H              3.2128326468038266              2.017536211330339              3.3665515527063943
H              2.7312281245606855              2.201437153911616              3.879560843947092
H              3.121308495368484              3.986622878645648              0.807151977195924
H              2.8392436267624084              4.2315637711070355              0.1699071491457082
H              2.6008575686764077              1.3816818603598058              0.8077977061996922
H              1.94170037774064              1.7970693007263838              0.6749419262943748
H              0.7418101330046104              -1.2147337924617472              -1.9075934030048645
H              0.15677702874203056              -0.706722749753951              -1.85061492016092
H              4.593691108332583              2.631098882546984              1.0043241677684824
H              4.936030711095039              2.049922887366913              1.3103483013757489
H              3.6470546970477686              4.573174383805152              2.9889998501516075
H              4.388608965830305              4.585053710927537              3.0625494296197497
H              3.0068464687057403              1.8670710576474905              3.4503372368780267
H              2.8665247488730103              2.164762114552011              4.086917704813819
H              2.9237890671678426              3.8001963899434807              0.7245408487182992
H              2.7403347263558704              4.058406782751242              0.1236309369585847
H              2.851418177469255              1.3508559791780554              0.9762930191891932
H              2.151090888767882              1.5514656503849806              0.8630497122370953
H              0.8197969249420093              -1.0719268063055483              -1.9896559838220005
H              0.3058286068307744              -0.5689242905731984              -1.8230319432981223
H              4.54144806422107              2.494016312790506              0.8851786359131922
H              4.837363311992266              2.1342666433893713              1.5317964198326974
H              3.855744118494824              4.239441461983899              2.840275134061234
H              4.357211459499444              4.721356959899467              3.0360880849527363
H              2.911080322188334              1.8055850024562952              3.2776809459226603
H              3.002614674954513              2.0888621148658877              3.9151641972409705
H              2.6019932141313418              3.893855479149899              0.7361141505685037
H              2.792900556296485              4.0573965774561165              0.05935417964238659
H              2.3361767643095632              1.7549952608547141              1.2788804729660235
H              1.8755639721954187              1.4525909087667483              0.8685462839902365
H              0.6939237546476877              -0.8653634120678775              -1.6972996012570019
H              0.5306885893145541              -0.17431697194878384              -1.6226257877449608
H              4.692035791584653              2.4216233469177784              0.9559070498090664
H              4.784833200997364              1.7307527978008772              0.8967128516363887
H              3.824356040091666              4.348361363389702              3.1634968969631263
H              4.412442446706477              4.752790423125884              2.8363446270380517
H              3.351433206135162              2.015756879987953              3.064952245010681
H              3.110332752273795              2.058495196092043              3.7922659333902162
H              2.3257068420670914              4.048561854612221              0.6429168294783489
H              2.885358691050397              4.398539941042278              0.28448682737822617
H              2.4232589849937116              1.6837202813899468              1.0513014401278251
H              1.738260959182872              1.866932627932505              0.7582364052248188
H              0.7340166834309634              -0.929900553180972              -1.852714353038479
H              0.5322128154390866              -0.3093750503672999              -1.567612337367333
H              4.415577185830457              2.1954226690028555              0.8209799230398875
H              4.670788246182479              1.780109300428086              1.3668685403074894
H              3.621671108405866              4.627907377173032              3.065233109979046
H              4.359946988216963              4.653499014321636              3.0522992440917593
H              3.6061019132221106              1.973001573685181              3.441396275007303
H              2.88752786326625              1.8354991058351189              3.610339265514663
H              2.714830508225154              4.058813481661373              0.4682388872925452
H              3.03785320428229              4.437086993392858              -0.08770633579561311
H              2.3617182572411903              1.5341194787240564              1.0117858815858407
H              1.74376490036951              1.5829031496674428              0.665542879301664
H              1.0110252971049758              -1.0109655946715639              -1.9914702903991028
H              0.5801931191063837              -0.3730267581540219              -1.7283823225642168
H              4.818227843300748              2.345747388823015              1.163950953896794
H              4.7945109560743076              1.9244534936066555              1.7001286593915201
H              3.803101506512327              5.015134310137149              2.9679919239443513
H              4.4592603416048435              4.668984348881705              3.073039480722295
H              3.211278575341747              1.613566889797077              3.1852830553103266
H              2.9196290528919575              1.9734512958910122              3.852025883765309
H              3.097276994026773              3.8861777122103067              0.4773220553543381
H              2.9372145436355073              4.487197500573431              0.09698297110091618
