72

H              1.0458410818100778              0.7749309647009915              -0.570949285002617
H              1.6815601480083502              0.574242025694975              -0.28715649606854976
H              -1.0656849438973002              -2.2215209298290657              -2.2827342979306438
H              -1.6344319236264793              -2.401850964516403              -2.025171969401725
H              4.2342148180843635              0.8079189079513663              1.3617991919057115
H              4.552314373222536              1.437352149039654              1.026248044563528
H              3.931770344116052              3.6596315441534553              2.8588000380058136
H              4.140857512551053              4.318200700232997              3.2410767957876363
H              1.2604312404790334              2.101203836787984              2.8192528032100435
H              1.5978818386472593              2.458438336657279              2.289238005883161
H              2.587638395589422              4.266297536206683              -0.11306581355568655
H              2.1504496447635533              3.9171219151177206              0.3329980932432515
H              0.871027114559501              0.7471195724845348              -0.540062692426361
H              1.4907017934215963              0.9456376437325834              -0.07434636832753298
H              -0.759021627087125              -2.23616826384325              -2.025049932073883
H              -1.6227957843222114              -2.124931183197459              -1.8331409837544934
H              3.94521646596841              0.9572459976804997              1.268725790797298
H              4.104747985142101              1.6167832073831894              0.9642472128143135
H              3.901828420920854              3.5576735860344106              3.024065892594
H              4.3016770993730225              4.216053713846279              2.855835790567902
H              1.5234067761617005              2.2084589711434246              2.994306327207332
H              1.6698045184915515              2.2150191192521578              2.232269372710604
H              2.826513496116277              3.9397967221368178              0.03459127747306733
H              2.1778638943971513              3.6958681695816185              0.11826322338142849
H              0.8656147303081252              0.7039929293772522              -0.2784382329851335
H              1.525470780691232              1.0082088069248294              -0.43577756535712003
H              -1.0859312202046771              -2.5459288450586213              -2.071054226932195
H              -1.8006541256856332              -2.2476528989549895              -1.915123561613045
H              3.5408024335643242              1.2715661955292221              1.3439442725872908
H              4.263273124792255              1.383542741795132              1.1008601862031897
H              3.658102113528345              3.7606040715003908              2.8393244352822276
H              4.35434287166038              3.9258773293417915              3.0347518889405842
H              1.9330476531610856              1.9805474913770487              2.662165460037485
H              1.5552444586107013              2.284011660090337              2.092279962267593
H              2.917783911167139              3.8830737983172607              0.08631910729696111
H              2.2616380357736205              3.9145235325587273              0.3362257533378173
H              0.6016287372302904              0.9705178734717937              -0.32612249828211604
H              1.3450954502305827              0.9553587674886336              -0.4176900394398288
H              -1.248430786335386              -2.4401496631623507              -2.2089435558427595
H              -1.7866057857779178              -2.6790596033434184              -1.940668437495448
H              3.769705635856255              0.8213998916251727              1.329628613749184
H              4.240721342662166              1.230473474722437              1.4679460513511082
H              3.5132408594288234              3.658610120327109              2.8338709370437076
H              3.983710288062005              4.093349829102453              3.2446110085731745
H              1.5889054506986784              1.9657295680806361              2.8446822257667694
H              1.2109441863795525              2.2753920077288594              2.170571579800598
H              2.51615014936935              3.9524037303824504              -0.02644853685696803
H              1.8980904855297736              3.7106730478015764              0.3370507410341406
H              0.6649451018424835              1.0359034580839406              -0.4859553353767335
H              1.497379834495419              0.8637991006238553              -0.3175477635306586
H              -1.4548330769041438              -2.2477149380922548              -2.3494138215555247
H              -1.8932833962242859              -2.7883341381902866              -2.0577243221617456
H              3.6831830591979555              0.9924655857277856              1.4555343294867982
H              4.301234111312818              1.0720324757894875              1.0562545907520797
H              3.51038094951984              4.181999729761319              2.7609533587001818
H              4.308031203683685              4.306419617687405              3.030765493751266
H              1.9252627883029465              2.074786372096428              2.805863595720217
H              1.586409371378974              2.289591375992921              2.2231758393973844
H              2.4454176238985452              3.915277209165075              0.3150265314743736
H              1.7445206009624166              3.9871922237181625              0.08980893924659701
H              0.7215598430835953              1.0158543258346184              -0.7469512156794091
H              1.3650082040358567              0.9233789151104347              -0.4177682727693663
H              -1.4617676027291573              -2.171044900094336              -2.3529449161535396
H              -2.0357526590153743              -2.509090631639993              -2.128301163558892
H              3.8827965591655706              0.879488086095392              1.0624925741799653
H              4.323654277869272              1.3932650328685676              0.9521402278290433
H              3.572761213919256              4.0455223357641374              2.9171189650280724
H              4.237443296994466              4.320088523891856              3.1417176280697823
H              1.6642843346643477              2.034900248390905              2.8941118441794593
H              1.3208790428431745              2.360301698800348              2.3528668717593306
H              2.5684025835988513              4.130803629408827              -0.09362843366357743
H              1.8942912397960578              4.041124523012327              0.19412295784473155
