72

H              1.5213095881969096              1.6108384324592608              0.2002927753730219
H              1.3665730430801797              1.2326474027812289              0.7594487183558474
H              -1.604401997058832              -0.012835613837506882              -2.129204560665307
H              -0.7794294087565726              -0.03588744722720293              -2.025489893584189
H              4.447130608263325              1.6736284351671293              0.513224268337618
H              4.431036175618689              2.3949071386129086              0.41439400311517416
H              3.4266253076508186              4.012691694530985              2.6861259661921624
H              3.9732456645930383              4.544692186970639              2.8775336875846196
H              2.163878556173658              1.7721435854932344              2.7323656453298297
H              2.5223980271788085              1.6188755557944918              3.3402811904316323
H              2.3440453387218683              3.9951655755856104              0.35311250571613295
H              1.9945149417161578              4.408461892025288              0.8805309532792646
H              1.4285133675597206              1.9924927878996281              0.3226325210108824
H              1.2095768100849908              1.2248005997951774              0.3967689516789887
H              -1.3759739095112749              -0.2151889311073083              -2.365931935286645
H              -0.6996731402759028              -0.028304258390404274              -2.2339865940324324
H              4.094278550430628              1.9201622380389114              0.9164563971585926
H              4.530490912371997              2.2239011714499064              0.41829479710888084
H              3.3345680237316717              4.184518706056703              2.7040919409341044
H              3.9620002935189063              4.525532841462972              3.0251600628136486
H              2.142400294772109              1.8561822391445106              2.6126473366981484
H              2.6188279198623685              1.6090730703378937              3.1193521691591055
H              2.4289506544182764              4.275637309976357              0.2083205023364469
H              2.0404916246612532              4.3572937655167925              0.8287543472626544
H              1.6864693327028868              1.509889202246548              0.1351449093961243
H              1.2210440272323277              1.3292034655558185              0.5757183145097877
H              -1.0928146927073663              -0.22603114224470586              -2.2603842891858514
H              -0.3908276217793861              -0.01778439473998714              -2.3753407538494726
H              4.287324947185923              1.846204844678883              0.8589156728646067
H              4.402589905712424              2.543838345269829              0.8023425410951723
H              3.5406484228179202              4.1542870906662825              2.7792919987672855
H              3.8201923086631124              4.799080267716412              2.848626013456118
H              2.0773364663953497              1.8846129281675272              2.6031492714503415
H              2.6409920207389708              1.795853568919823              3.043624928350181
H              2.5033142234115124              4.01399693062601              0.25295838123783926
H              2.155063299231287              4.051977068727393              0.8857438786396276
H              1.4073353507721673              1.902813099418738              0.14347284160011256
H              1.386359362936064              1.2823431352670913              0.4241992419524376
H              -1.270239486559164              -0.19076224438818656              -2.389915821820418
H              -0.41074729229220336              -0.22929402161518897              -2.4177440050532404
H              4.837702897410405              1.8349212138250601              0.5870569388391874
H              4.729086629162779              2.538511415312344              0.39618510190570505
H              3.535695583058841              4.274547488143749              2.847976654259379
H              4.0754450687803265              4.796878912591308              2.6727670823208642
H              2.5220321846470455              1.6305123289155181              2.6287141079303273
H              2.311265852873456              2.14869157981653              2.9647843159648692
H              2.6173818226998615              4.053770007100721              0.48789525691305996
H              1.9716803885741703              4.281525634710869              0.675793441445103
H              1.6246025011799117              1.8482519228708432              0.24735133774103685
H              1.5027817153827514              1.1359355910188078              0.2680099581865108
H              -1.2156661485920268              -0.08332157606162063              -2.1885205216075034
H              -0.5811280070005427              -0.35020473231289356              -2.270892819417228
H              4.104391456664389              1.8245454326279436              0.439144187889408
H              4.563238885096093              2.3773031979775703              0.6496948448400534
H              3.6769710463871315              3.861906522081577              3.0175838731985785
H              4.024824539656982              4.566654581895              2.998583567864893
H              2.2096077901378823              1.6147127433245656              2.614961586778018
H              2.4687775487272217              2.083871259378372              3.2146082961414977
H              2.2619360449524137              4.303786140447807              0.3747568313872628
H              1.8972522081765626              3.8285764887324754              0.8184546563034183
H              1.4419058079626976              1.5757595496208818              0.17727068728250664
H              1.5942673583356792              1.275768908339439              0.8308317870204429
H              -1.2583736042696039              -0.1572123999646165              -1.8749858698426953
H              -0.6287790105715502              -0.2602673223692393              -2.123979856597272
H              4.478676284816585              1.669580645727692              0.6789681254502223
H              4.610179332354644              2.421527177202646              0.6894448537588003
H              3.8398577929103532              3.9852069512698423              2.4909326399484013
H              4.1345512529388              4.42639819428014              3.0096426454011636
H              2.001117698864766              1.283736584452801              3.100457429749372
H              2.5129389045663064              1.8295326835187922              3.161147789956698
H              2.2212673164730043              4.24737658250435              0.4458994029926303
H              2.020300510044317              4.304393067222868              1.137785815940903
