72

H              2.237644581720477              1.5636100109529687              0.6019613750591604
H              1.8238724889907785              2.073545714348072              0.9468506626326008
H              0.2655324104598582              -0.4173017694163257              -1.6864585694493133
H              0.10510132938181004              0.17080095273110005              -2.1104563366295874
H              5.224672555424112              2.398304443237389              1.4940651182466835
H              4.819252948396253              1.9693949969903632              0.9867417972286213
H              4.0834000104442785              4.4062106536258              3.2526957004397925
H              3.998188334046108              3.9630966788692277              2.7403078614874676
H              3.2657634726508156              1.2654762730433413              3.367203093573928
H              3.2469824938927845              1.9314026680263159              3.237638283569848
H              3.015173066723177              4.108994850962068              0.5458136991837865
H              2.7353542455364908              4.716646373013431              0.3981567848578996
H              2.076558916798805              1.7324841693593858              0.6959161042649099
H              1.4450012210836225              1.781843269103864              0.9244975171790816
H              0.4605286239887331              -0.3481001397079145              -1.7616415608611213
H              0.18526358310353438              0.34993258102159086              -2.105079771169089
H              5.601285772102789              2.434924668650091              1.3555249569840042
H              4.9399265101286005              2.0945855599290173              1.12973603654858
H              4.187053193378646              4.849113921516718              3.0433095944215576
H              4.082050528013803              4.244209955159345              2.625153565041747
H              3.396690675105208              1.2798443823005032              3.103021837091647
H              3.4218542488282746              1.9300625923299952              3.185458458973081
H              3.0269292940673895              4.211401183874665              0.5555139969998656
H              2.918496559274928              4.9685949657710715              0.701146505031866
H              2.262219564998832              1.7350926135728808              0.5264460170101805
H              1.471252571914282              1.827910310228416              0.7049645344517956
H              0.38981446733076697              -0.4956440858324377              -2.155797773720387
H              0.35692016350434536              0.3043265623057189              -1.9933806188497976
H              5.539562730241194              2.501309896465229              1.1508090594792464
H              4.865808891777314              2.2613810476901977              0.8901279313806442
H              4.000198461674642              5.00390179392671              2.9378528719419865
H              4.01690774781498              4.233075768950781              2.911004311999096
H              3.4889291336137234              1.3718854285374749              3.0235997945801483
H              3.33521289240436              2.11827499771024              3.1748011898813098
H              3.203510325696708              4.122532216598468              0.3932876176624378
H              2.9511098081652323              4.765241461626812              0.6554764331422896
H              2.335250743923234              1.3530232378201825              0.8481145274057621
H              1.675031256267131              1.6399308170971747              0.6025446643808197
H              0.3353076803449679              -0.5877969059605855              -2.1624422402122945
H              0.5049281412023876              0.03436979700609511              -2.2999839919852367
H              5.489874850110694              2.45458604278293              1.6847729978959498
H              5.089405647838095              2.3959830118941614              1.1079156698556245
H              4.285383480432451              4.889505956537309              2.9540152836961733
H              4.023256538408172              4.1615035399464535              3.033966246451158
H              3.002504945257587              1.4866695259150622              3.1640696873869985
H              3.4835315445708432              1.945198589343779              3.0220395774492945
H              3.334419655385311              4.139426652322458              0.5476813753026158
H              2.790378220762758              4.627520494680851              0.571311282527197
H              2.4019428454774783              1.4865086714357159              0.675977177781534
H              1.9389017349575257              1.6832054162370724              1.255136975389562
H              0.348885086189026              -0.5145394234945141              -1.707389647335237
H              0.39125913922685124              0.10172814498389975              -2.2403626003385426
H              5.7443269883075105              2.5492717298144956              1.235640428015672
H              5.041943536292788              2.3286530006338086              0.9015641396884168
H              4.307410503403808              4.561134136939992              3.1042565148089993
H              4.322352116071809              3.9850480298855704              2.6233194148416925
H              3.243291279583325              1.9422750758326195              3.463225390312544
H              3.1965772613005026              1.9185940123607388              2.7138160506468667
H              3.2392725443032377              4.116613023986627              0.4204828722038894
H              2.77940735060735              4.47766198682228              0.8588892027941826
H              2.162187956028818              1.5677750723203678              0.9557976439897838
H              1.7229640411298275              2.109609547402117              0.8636514687758065
H              -0.14540221461611358              -0.3232909212062121              -1.5922253607004022
H              0.21259217649015336              0.06318917532154843              -2.160599336822571
H              5.426874201223217              2.341106428359432              1.2546270365434944
H              5.2708897186730965              2.1914756392932158              0.5573730831431651
H              4.1139329280358865              4.483603327756287              3.1694772441765857
H              4.159445178991739              3.8346210453131833              2.8333552768178922
H              3.3356242222663073              1.4503016325985916              3.26981787595389
H              3.407949403480955              2.168691120648595              3.124579750332093
H              2.954456225793089              4.12828024477062              0.3407276826579499
H              2.697733337452636              4.6098029443574955              0.8164344792232106
