72

H              2.2958348566251967              1.6148619128241142              0.5855572312587614
H              1.6276011715396612              1.6908217689977305              0.8911319938063438
H              -1.2242212780275685              -1.195463405088081              -1.7646616925492566
H              -1.486494032562055              -1.3157768002597137              -2.36441394052585
H              5.053571820373552              2.1144936319444163              1.3601815953396093
H              5.222152887546983              2.5944415251583117              0.8842408100375304
H              4.508627583958406              4.932086276121372              2.6782755407602954
H              4.510713135442494              4.181321883296943              2.922876034135314
H              3.1101783654569948              1.4353825617066254              3.9358229558525077
H              2.8465006538832096              2.182545457350441              3.568641595288274
H              2.959571891396688              4.575027988518835              0.7493346719303268
H              2.9853455372608835              4.073932134335185              0.2212101125112623
H              2.239161594428841              1.1699192985129792              0.4856635060827867
H              1.726171221745763              1.4871992249169543              0.8467735433555265
H              -0.8781420201919893              -0.8777661687382375              -1.7545347974725842
H              -1.1395436805837544              -1.437979312515821              -2.241991650575776
H              5.0139767997609255              2.3968270194114623              1.4248083195197847
H              5.127693836351823              2.5325268303416384              0.7219350860470121
H              4.462387584477998              4.888485033545478              2.7708378721496936
H              4.505615892335177              4.201983098989574              2.8597706168204597
H              3.2964490416753525              1.8543897723421956              3.8540716763846445
H              3.0032718913380028              2.304291949863364              3.193012948066358
H              3.18878936814618              4.417026272373453              0.6874871916520404
H              2.619705607130271              4.295218745964241              0.29591103499429156
H              2.051047062307004              1.1331177613111239              0.7880995799025604
H              1.8430493471273655              1.8321640065677698              0.6307595799676533
H              -0.8958473199879459              -1.1748666439040591              -1.6673590192562493
H              -1.0127062305150036              -1.4650217472914728              -2.3830370551322515
H              4.894926362830024              2.5471669397369716              1.304764754076421
H              5.154940624870998              2.3397632297077013              0.6760896666033446
H              4.154511846198337              4.922477794420988              2.8037486151335314
H              4.448028450008771              4.238148370416779              2.856131869906061
H              3.38624415924031              1.873645606928756              3.7832512617642995
H              3.0387047321226883              2.1436813616011787              3.184626783349473
H              3.183567089059347              4.749130409990752              0.7295015569938146
H              2.798683353652316              4.4060630217354175              0.2082008544433838
H              2.4106278518853874              1.2107502387425855              0.8694938756944426
H              1.987634516665869              1.5132256290502784              0.3463133192363713
H              -0.9968072502916359              -1.3623298728118647              -1.9646313801197663
H              -0.9225808997795804              -1.7577800671344634              -2.5192884267999625
H              5.115547363472301              2.1523887770939263              1.4940009222147015
H              5.165265345988197              2.52244470285059              0.9003732172670702
H              4.218772265906762              4.752903618468114              2.8632331345555944
H              4.261818651304241              4.03073263571825              2.9513060964695907
H              3.143548706888041              1.7829697991631774              3.8747248339513396
H              3.0463384657153814              1.9580961021775463              3.1217294354649887
H              3.211236733942265              4.474988568680955              0.32701878947207513
H              2.5714939739143294              4.1703253668625              0.3109404484418771
H              2.4306857587190147              1.330392632981986              0.7540402848783114
H              1.9876257673815283              1.8948731333598052              0.8138069525923608
H              -0.8590613428409226              -1.360224644009359              -1.8376386303611274
H              -1.0258117488862801              -1.7004466107578193              -2.55282691030659
H              4.914867482006956              2.3850607955703427              1.4198614848006255
H              5.339926959827888              2.7437357999341794              1.04750110629985
H              4.567837978198759              4.717762605219978              2.871526804359959
H              4.613330839142398              3.9972785059332536              2.902404982367068
H              2.914206070707272              1.4539666898935957              3.4913714718298956
H              3.151842168656954              2.164765255123732              3.250339890271066
H              3.1228966314306104              4.538474109857334              0.46541544054087497
H              2.487640510625103              4.1963738389571335              0.557473814387351
H              2.1975073142867796              1.2300879550786352              0.6749803871878796
H              1.8840589439728201              1.8159761219036001              1.1327608054963247
H              -1.1376575249021679              -1.3450503989424518              -1.5869742329284533
H              -1.22546266655383              -1.5176318072318362              -2.272712034346153
H              4.94510832093566              2.3495521503140746              1.1892680981225436
H              4.879293920963563              2.6349696483480627              0.5047456705605675
H              4.661833027795115              4.611673784384762              2.7309633616410753
H              4.553447801149625              4.10384736776144              3.3261234272364937
H              3.0122923045106123              1.69316526860919              3.820203467900022
H              2.904828572251358              2.2786691056877317              3.282351651148362
H              3.0005772800447383              4.700581776853207              0.6467165943349458
H              2.8143732824458003              4.187309214448856              0.1641760177655739
