72

H              2.572064499232029              1.7227874154115925              0.8378425237463334
H              1.9271129673347909              1.4465395839455242              0.6255200440826408
H              0.9928318313973605              -1.0286917791038317              -2.022889805005371
H              0.4439807908891229              -0.6461590995783688              -1.7257257276820268
H              4.780915375108984              2.5885066254226974              0.8395011121443038
H              4.6267749867879004              2.2169683946879952              1.4128571843729463
H              3.7095398457590885              4.632096990904255              2.894312104086074
H              4.4619429827023565              4.702827505109923              2.9508186316913276
H              3.3945200280935297              2.0871123062428465              3.440464218243177
H              2.8391741751007427              2.205679436188756              3.8201634808381635
H              2.9657428590663284              3.781089475259436              0.5393878129741505
H              2.770955520603143              4.29125002087641              0.09896269125484884
H              2.4063719290010077              1.3571760502318388              1.00887284306424
H              1.9900106766737953              1.8307591874902716              0.5758580718775733
H              0.7754975509449608              -1.3182246446233712              -1.9795026624325704
H              0.5095031779686975              -0.5780821288918713              -1.8366224744096267
H              4.575142094585695              2.724803329281699              1.0170382885167861
H              4.92653732032917              2.0143354827397624              1.1569631271696343
H              3.6659838894789423              4.5063206958082995              2.9493382494894065
H              4.425962678890621              4.484928262966541              2.9860779707556677
H              2.9487349692006823              1.5956678822772428              3.5876548491711926
H              2.916373634663505              1.9691379796804804              4.164517342097887
H              3.0131013291465862              3.95664709027614              0.8227886508558026
H              2.726859161753433              3.9621649356055793              0.19589664978486332
H              2.5622765576459003              1.252768133500815              0.8976066020320584
H              1.9047664456140645              1.577259382383478              1.05524921784009
H              0.8936703826516003              -1.1004663123323222              -1.6715251877682888
H              0.3598355502288212              -0.6040055979641463              -1.6453060473164716
H              4.591224174841603              2.451602807962606              0.8845537090628777
H              4.879183076433051              2.015636004087753              1.445735454310231
H              3.9250351920215563              4.103556564008239              3.1089405918146062
H              4.472710375664603              4.6275464318327435              3.0327670242339178
H              2.9595411601582167              1.9274233431583465              3.464597923047806
H              2.7883397040289655              2.2896392564954633              4.068151942150701
H              2.736918208369125              4.040659140493743              0.7404576990033603
H              2.957127357645277              4.001937717275646              0.07133998809868704
H              2.2750385821454486              1.6570566182268596              1.3954760680849176
H              1.8904442344556347              1.5154283863151714              0.830015854197738
H              0.4721998853347158              -0.9634811770351852              -1.6445394819367525
H              0.1230976561839694              -0.3225318061055732              -1.603106854199607
H              4.507576301062363              2.444566137609144              0.8541205361650187
H              4.882227714113208              1.8328219045421397              1.145563947097925
H              3.939391725372935              4.301758071604406              2.9653087326506693
H              4.356868804641589              4.976301498283201              3.065099734753472
H              3.325328019886918              2.328394786753622              3.240738250700218
H              3.0395987381585954              1.9456266539493827              3.7291663960230714
H              2.4679090844790084              4.108297551989644              0.4932280626224096
H              3.14009025422374              4.377800598779503              0.34155259285520667
H              2.4701276367746              1.3636292101839704              1.0999843492035384
H              1.8938460786006865              1.7443591510581213              0.7252699446127977
H              0.6523528315907025              -0.910752694280428              -2.0087357901684824
H              0.2943513283580842              -0.4256230888600114              -1.5585076699002054
H              4.393605443921343              2.136781719606095              0.7102151153560999
H              4.736215819972147              1.8004660760783633              1.2434990598383566
H              3.474999048977593              4.656656494118211              2.9646588488381895
H              4.190907790967938              4.776503868165446              3.126549675158496
H              3.301335532582399              2.189542466260681              3.1878842343329508
H              2.8309553359865705              1.8819609662744865              3.7180758722346146
H              2.6289191332579893              4.117061128497608              0.5649030867129952
H              2.9926798556190826              4.265334575221336              -0.06305767539960108
H              2.4779782592138644              1.8002850441022633              0.9118325495199354
H              1.8126905424081996              1.6734894417619546              0.6746874886389125
H              1.1290783412067622              -0.9996641431177011              -2.0445515195700223
H              0.46236139837503687              -0.5650793111667057              -1.7254861078203447
H              4.832352625153419              2.3174573481752687              1.0042069255644068
H              4.952355530130417              1.8962252262534005              1.6677808996636831
H              3.6805457942504867              4.951658060974589              2.833517419510458
H              4.382012539631302              4.689203206600189              2.9161439907984037
H              2.9944862246538686              1.968427465580492              3.24527815615839
H              3.0111399567400037              2.1654284272066553              3.8879744494042283
H              2.8914749817877077              3.9837766483548505              0.6747225628509413
H              2.8840652838343392              4.440769785438933              0.07178321231376485
