72

H              1.1402204212634768              0.8417651974539508              -0.4056472564127966
H              1.0977581276214539              1.0519323203280262              0.2618943463703814
H              -1.7529910901533057              -1.4493619435850877              -2.471246156789022
H              -1.769204399969212              -1.5729718117203402              -1.64773728482803
H              3.841618179728392              1.4569679841840262              1.052607219888972
H              4.318298732821383              1.9214464534355709              0.6604015564756461
H              3.7858917816016504              4.686944706862241              2.634964949561014
H              3.9477950800317454              3.98155319410519              2.596336852529394
H              1.3138452103561717              2.346023527868122              2.543262720392691
H              1.7674209404833559              1.8474409221018095              2.8701016546259357
H              2.2020159541856295              3.949992744579463              0.739285763202411
H              1.5570720268088807              4.2698551930630915              0.5470291784828395
H              0.9166239733796502              0.9532322815619507              -0.4582781563454331
H              1.0437429767176134              0.7840597848179085              0.2906114436283861
H              -1.877352412376919              -1.343047142489993              -2.588830736343382
H              -1.8856019153229644              -1.6577907263718419              -1.9071258669306719
H              3.5005645389914815              1.4865992001954589              0.7962733014438592
H              4.0295932213941565              1.843298561665794              1.3012305154723243
H              3.865727193667636              4.651497863645372              2.870511068548735
H              3.565337253077954              4.003384636081084              2.6768521886837213
H              1.1277671191962828              2.3676342478702903              2.5934748784216732
H              1.7194900131703892              2.030289728472855              2.436288065722244
H              2.025319148062378              3.904315618630155              0.5281632447858541
H              1.3714387093172802              4.096732918274449              0.8776409111710397
H              0.8920845453619022              0.7647840514099172              -0.5091417089572491
H              1.2106902159082247              0.9294694351644321              0.1888659596423252
H              -1.7157185857978106              -1.1987798137462025              -2.53118789529217
H              -1.4906397738003876              -1.6321540014800855              -1.9661039178457744
H              3.838149633939418              1.4317780103107256              1.1172486271238171
H              4.2396848915989755              2.112415191179068              1.145266276396776
H              4.254138918820425              4.785968094486137              2.656449464350659
H              3.7438221273605166              4.245051259575757              2.6453908017846035
H              1.1846543902819924              2.2922046213363445              2.793490155601746
H              1.6542468554082868              1.9510354025096361              2.248365249718082
H              1.8625990458737862              3.836848834752205              0.47042829905647576
H              1.5414122586843741              4.190180002569878              1.0449191619388747
H              0.8536912434607309              0.6821996719320446              -0.5238412514760505
H              1.0960201083319645              1.1478824933932508              -0.0008639323245364869
H              -1.6354999697994155              -0.9524013036267948              -2.4822914790770945
H              -1.4606307702767365              -1.4443609185967472              -1.8388913295589513
H              4.017905399628732              1.5362539601591312              0.6275659348908142
H              4.036254937233428              2.2383129029943722              0.8432987723836048
H              4.342244694010195              4.550340427654478              2.6409678043868245
H              3.733251038302773              4.181865603400391              2.8987894991481817
H              1.4514281410674734              2.4567103701268214              2.8350883539781755
H              1.575760985569806              1.834323094538544              2.4640068643610826
H              2.0124545235417184              3.8258540363657865              0.2406734790116399
H              1.7280733925375735              4.102036996834292              0.8243268587375632
H              0.9565748227336209              0.9511129686170028              -0.5908426842135102
H              0.9725611961933613              1.053666134108332              0.17538568020077688
H              -1.3827254423668898              -1.2551224818756              -2.358078200131549
H              -1.3266517403749494              -1.3932566310155499              -1.6905793116453052
H              3.935994069872188              1.6535928299530251              0.5919709575149761
H              4.365983452825559              2.078133681287406              1.0427440629113744
H              4.361061997320259              4.236348121967765              2.920222039794171
H              3.7804397140573243              3.8331414705828264              2.834735728060964
H              1.1627461009584523              2.340807023258682              2.5343669114068383
H              1.8173818353329834              2.0560883765544546              2.5658138354419404
H              2.2008910728521203              4.116071330965424              0.30422517873944643
H              1.734325626163722              4.063559298967269              0.8454227301342299
H              1.1155602168573109              0.7648410476097107              -0.28101101160086084
H              1.128189177068599              1.4713980990444913              -0.2033944517231512
H              -1.335958115985111              -1.3146738743315123              -2.2522229774966376
H              -1.341277472590647              -1.4685194722843806              -1.4987197893805735
H              3.863869745793598              1.4669591909696185              0.8258078902717194
H              4.264065521366706              2.044862764683628              1.1824525428050845
H              4.261992993141095              4.243440508943973              2.6830396570313377
H              3.7143814192598477              3.845254466222588              2.9552183633509705
H              1.1483058532162276              2.541042667297504              2.9206811966852992
H              1.5947579386820379              1.7810162462923849              2.6713701287064486
H              2.1991085369075662              3.8848925455381655              0.39685767539396816
H              1.5752195601747043              3.7268241851857598              0.7005855222987042
