72

H              2.2220740055163963              1.2620142632072382              0.8399320561938229
H              1.5787545513958514              1.5895842588051197              0.8300882227531934
H              0.37889208112782247              -1.2021394955563545              -1.92600518005629
H              -0.2816553917148876              -1.232109975357286              -1.717883978296369
H              5.029562817574094              1.954264696664917              0.9750676532345548
H              4.925494309150876              2.5318273040357138              1.4074577540737032
H              3.7930544911065236              4.74261112486981              2.503540445140262
H              4.047337640041442              4.6910270287737905              3.205332317239825
H              2.617821689164642              2.6168772082818115              3.8456626498559094
H              2.4251283997931856              1.8843498420201152              4.057589508575339
H              2.8785539169203287              4.361999678084935              0.4117153970179979
H              3.340905160132598              3.7386343753587714              0.2727576512389553
H              2.199123356468798              1.3264821902698352              1.2510023867734235
H              1.8757755356455783              1.5030646795760958              0.6710374377364602
H              0.4298380483473336              -1.173649921742277              -1.9129099211089284
H              -0.33371378864521667              -1.1800495069165773              -1.7820348541602098
H              4.946322380187565              2.3761799837587745              0.7450539351627263
H              5.205155129176651              2.656932756920862              1.3924254224596568
H              4.032052372592841              4.574694832863569              2.3907654094800592
H              4.1050263056092895              4.88918529490506              3.01574288582738
H              2.2981202664285765              2.5008002131800224              3.666856506260405
H              2.8261895375827644              2.5554928146495732              4.094097286849522
H              2.678217344323              4.390696475047959              0.6685833699414316
H              3.050851630249047              3.7656229003556434              0.49914982666790236
H              2.2822361638277684              1.3117654725297605              0.8379342163838095
H              1.6493780267338614              1.1911826480582837              1.1266249535579602
H              0.2730043532406305              -1.0820909925505835              -2.030505115080469
H              -0.4356294236499667              -0.9842578496413154              -1.6975462183765295
H              4.595801649884165              2.4019073686621066              0.45552382560623733
H              5.049545939464902              2.3617450831515634              1.0173595994865616
H              3.5242789389472655              4.464617512449286              2.5168784949751775
H              4.047876503790024              4.766229161939598              3.036706743656202
H              2.4875414674510496              2.522776306354901              3.6269726551383283
H              3.101302662190294              2.3619301282915006              3.976190187351168
H              2.443145336569085              4.366304063730876              0.4044673322875657
H              2.892083201173453              3.7773782360150236              0.44068198815069637
H              2.2410651771925547              1.7475274579535047              1.0086345702867467
H              1.6799909439819876              1.2459777045986598              0.9968719024056135
H              0.428652395647661              -1.2061124978251363              -2.2033856707665747
H              -0.09071053980207291              -0.7509178981589346              -1.7672178208605533
H              4.673926507049844              2.011509365158548              0.7156657121104716
H              5.151701484372855              2.246155804975704              1.4106911293709308
H              3.5967474807399213              4.548633004425131              2.4368015228932114
H              3.9884862170721083              4.588888121775349              3.0722395649942285
H              2.5242476004984984              2.245823850351705              3.672294823488464
H              3.203831181431171              1.892606202923387              3.9092151504119887
H              2.542125915774993              4.481853807010961              0.384147469843447
H              3.0243296484363875              3.944174090919379              0.30331280766426394
H              2.126660625714391              1.4202786218060772              1.25728978390497
H              1.498892238170488              1.482029066487082              0.972399751993597
H              0.6357829448985334              -1.0201951060692007              -1.9054843529658176
H              0.12433777513516313              -0.6071786357570536              -1.5273962125697107
H              4.863255077648088              2.0107533386612495              0.7209714170066295
H              4.913014563064654              2.1647996370237497              1.457571356618385
H              3.7475715136857413              4.472804579147582              2.786830996540562
H              4.349232751627971              4.733885775507176              3.03959430320874
H              2.9883944857088713              2.4667129143021356              3.254283583528735
H              3.062228653843969              2.0357389632996163              3.8475562428432664
H              2.739667074623489              4.707719640676599              0.4032380372013787
H              3.020115358101105              4.043773660146629              0.2028840700631491
H              1.942088285222693              1.5741592990457844              1.300900502558405
H              1.5355882149941689              1.99560181340677              0.7766637009758747
H              0.4409298664049147              -1.197628112958282              -1.7698680465759578
H              -0.1565429109087183              -0.8235613771340171              -1.496617176803928
H              4.68956681444818              2.2372845980381277              0.5818534379510006
H              4.989146594734594              2.17158957187015              1.2866180853227207
H              3.6725700707799462              4.6321903743318344              2.7447563110038558
H              4.388323230356875              4.8298927104789655              3.0564749365824646
H              2.9794119865991644              2.5249412365271726              3.683882045049864
H              2.907008296642563              1.7853508708408674              3.7553748757176564
H              2.972315440538492              4.725142873970205              0.4126029457764617
H              3.2056963956533933              4.025719215700079              0.42491430062452373
