72

H              1.1046808981760559              0.7709929177275273              -0.5682022333287902
H              0.9407755435098366              1.1923294508239217              0.000814756717802157
H              -1.4496241648875388              -1.0158216064507641              -2.4636688959498634
H              -1.0714736035104466              -1.3904958384712702              -2.023487199414308
H              4.027078814755989              1.6742441769556387              0.6949909575660942
H              4.217527010417753              2.185352317346047              1.183230489543863
H              4.261206074810613              4.429203799665283              2.9927370262727395
H              3.609407745934237              4.1708544897279545              2.8092287812171803
H              1.1526186137747723              2.5132032237549184              2.8511899503227767
H              1.561493228750588              1.877702074594613              2.7186638148440925
H              1.9181277870427165              3.8026462522081586              0.26018606894682356
H              1.5236540080952314              3.866706545182715              0.8851766467729556
H              1.4033570418715984              0.9173328849563002              -0.5573168684958342
H              1.0390768635227416              1.1498989505267347              -0.011310185573238924
H              -1.5379439334406022              -0.9373372996695823              -2.246776871287483
H              -1.1933203537967956              -1.4822472927021484              -1.858086591310777
H              4.174651837990808              1.6385791528054003              0.9986543680225113
H              4.287176324723357              2.340164389703691              0.7954946339445006
H              4.3795622827326905              4.598466628077001              2.795839322368161
H              3.95337660243433              4.0102453623336505              2.574211277354635
H              1.502086848143831              2.4296245760967086              2.8851882692316013
H              1.4187409082764109              1.718679696299449              2.853525140031057
H              2.0303875582487683              3.823466013055913              0.6264647350170881
H              1.5407982111785383              4.222274255644955              0.9372856715337629
H              1.3336350549876268              1.2542665137459472              -0.39302576307188314
H              0.860182572036481              1.1035447214694982              0.02576222539634442
H              -1.718882520815975              -0.9225458180373591              -2.2361122728526834
H              -1.6508720029436732              -1.3502378066932292              -1.6674314643254433
H              3.703587163164899              1.7036948102359968              0.6226753347107584
H              4.092707478038152              2.184714994629802              0.9906649978433174
H              4.067141069642441              4.312641115667035              2.9940030183607242
H              3.860759519286939              3.7966913357080885              2.5902009422333627
H              1.432533304728343              2.4638152829137256              2.7098877596698334
H              1.5263895595567887              1.7823188848944242              2.6108725941321524
H              2.0493539253234747              3.979084388025263              0.619868420426858
H              1.387496670563196              4.104976062589627              0.9311142635939429
H              1.3630194540357436              1.2303890922506056              -0.43976501874641616
H              1.0910858921565219              1.1515397576324948              0.2516085015714659
H              -1.681970696053246              -1.121828300416297              -2.3406260973773287
H              -1.6181755805927989              -1.2665898412446142              -1.6436051824771107
H              3.5941134622313737              1.7174937477420682              1.000557162978887
H              4.335220821210529              1.9541289864447315              1.2871832855932652
H              4.008097909012626              4.352131862558927              3.049851973276863
H              3.880122745982846              3.9186812165443876              2.4782891022533056
H              1.2055827713430696              2.3063176302970008              2.402032855394804
H              1.8177016507737682              1.940801574892891              2.4625549821323456
H              1.9033105496076446              3.8687075160710096              0.5127497399105235
H              1.395091740021278              4.028384448231377              1.0432926129954951
H              1.2429583414558103              0.7451567392047801              -0.133965751970409
H              1.2200094071647536              1.4638773117261734              -0.23355481885651544
H              -1.7319125145340148              -1.1261622124540727              -2.533738346886279
H              -1.5263014536244968              -1.0324471709928627              -1.7295824588875284
H              3.943197088310981              1.4729788840408635              0.8355221437724636
H              4.266670069676749              2.1448274907241784              0.9817463664216932
H              3.9921731076488944              4.7476681071771685              2.8023215667591646
H              3.6461076828505696              4.173116684530713              2.621421844065997
H              1.3032383841807678              2.484319288253218              2.641612285431886
H              1.6207655016022888              1.7341697254872321              2.6450329571742803
H              1.901767107728966              3.5922018692693083              0.2320792172000568
H              1.4598326691027486              3.965873927762305              0.7204048873475835
H              1.0436437175757411              0.8805321758850889              -0.4947077937690944
H              1.0618633586020527              0.893492638554292              0.2792056491485163
H              -1.7411847111889258              -1.1150065108828342              -2.757671296434285
H              -1.4444333236072233              -1.2274443452589083              -2.040165815547275
H              3.990396475078728              1.5471700609984451              0.714674664105989
H              4.491065074229174              2.1236813765671467              0.734653283788513
H              3.954669104603831              4.776443697897013              3.0370959094794197
H              3.6584348874457278              4.271745406682202              2.566008753251309
H              1.4776210326661237              1.9619564311850792              2.3243138399991143
H              1.671325540447841              2.405605526083996              2.8541494844159736
H              1.996229666612563              3.7824849104632365              0.23331126840275568
H              1.563558315421135              4.252200478802064              0.6405132110186083
