72

H              2.225291846265135              1.689060110191046              0.45965500065128756
H              1.8714571965639761              2.089913223038186              1.0089860968223474
H              0.1986767089393393              -0.41259855376510657              -1.7418814468204182
H              0.0964679580107211              0.23941983340253153              -2.215332206029593
H              5.244868020232584              2.4356051375528693              1.4538767791864209
H              4.761506754138713              2.028738387099705              1.0516019221042767
H              4.070061655342884              4.460213316041817              3.2359772208343136
H              4.006569063789847              3.885238614430668              2.6702274537085655
H              3.3134825902345306              1.2141372728621793              3.335542305940377
H              3.3131214398539335              1.978771450760428              3.200756062829257
H              3.0410532304747364              4.066559133135959              0.6065243554923629
H              2.7066895867513643              4.725116244157044              0.31866259023026083
H              2.151008776847456              1.7437475778316405              0.7030513914554828
H              1.359278049650806              1.740298943760147              0.8735072532400958
H              0.463764878606578              -0.21711619449258818              -1.7864086195473363
H              0.2904399105008538              0.37945513394628966              -2.0879438806718897
H              5.44913773935217              2.3905331171304525              1.3570271845170736
H              4.909030898736863              2.191491345850769              0.9916233160709044
H              4.299195272770464              4.800711984885269              3.0491976286748024
H              3.9932887981102327              4.135400147005821              2.677243468406003
H              3.432157762198825              1.1275396065025916              3.137664185757884
H              3.4232707736451937              1.933555051861106              3.242636428008293
H              3.0024014768969987              4.183356172618905              0.4649593090740858
H              2.931693702919417              4.849665735904784              0.8359213769494214
H              2.1408951428626835              1.720111207934654              0.6432403472177962
H              1.481199127205155              1.9051154526521146              0.7616851032473829
H              0.4013686306549531              -0.4138593406185443              -1.9909192072863688
H              0.4150309761632642              0.252082753235155              -1.9606695036438917
H              5.523810087487742              2.4593397288539753              1.198309338034182
H              4.90255154562747              2.2987796285252666              0.8629364987176257
H              4.131641534194795              4.925504341113242              2.961656465252267
H              4.0225074090060495              4.186947379386984              2.934682492587409
H              3.5252089289196853              1.473184201077484              3.0848673018218014
H              3.3150370639030697              2.1084128900276258              3.14112819194691
H              3.2494687008393974              4.19218787091319              0.3394981829611461
H              3.0141558086859708              4.7794215023056985              0.7399595593705832
H              2.3719656437813743              1.325947633193251              0.7802868183968024
H              1.6988924348573184              1.6304953871153876              0.6874397555843027
H              0.18116182713476087              -0.667596353907746              -2.154203983208851
H              0.40119066392219255              0.09117216602316118              -2.29710441698183
H              5.506597399089218              2.511347410017268              1.6724637037704597
H              4.992992960844776              2.3361387673457528              1.1633867887022402
H              4.179737438711803              4.884842140109283              2.9241044896648627
H              4.073778586444245              4.188248438760067              3.1622662761355276
H              2.858687035945573              1.71348896275433              3.0710638225249878
H              3.589565660554337              1.9726243488841735              2.9359333303301747
H              3.4162397557620183              4.159479843525324              0.459598187997152
H              2.803128314948698              4.5736776332316555              0.4852334500313211
H              2.4741042272778877              1.5245150211679381              0.6907900218071645
H              1.9564856231195276              1.7412429758953782              1.1297059580026196
H              0.28280938017468543              -0.5215360509309304              -1.8204579408134247
H              0.2863174221977436              0.06252728173509223              -2.2439965466945244
H              5.674250406622997              2.548140343881868              1.1809145340633063
H              5.143211440399832              2.2865593955605044              0.8134233340601602
H              4.228284736788066              4.626753055264362              3.0819126031015927
H              4.339982397705949              4.0310806749281545              2.631875434035861
H              3.1573257958296916              1.8762767686315904              3.481549036655599
H              3.1573403184272353              1.8977509545216393              2.73070434833811
H              3.196443258354292              4.155377933048966              0.43168704800131386
H              2.7346824266285257              4.511051079003549              0.8789784709258806
H              2.2279849872076625              1.536672822668714              0.9197910426299919
H              1.7109520125250506              2.0860278334555824              0.8798504499535061
H              -0.10516489037622188              -0.26138330823107625              -1.6070358917028607
H              0.15941959958308424              0.046820605471661884              -2.159678409862516
H              5.4520274051730375              2.2218363198875197              1.2351351024839436
H              5.2130551547201565              2.300418049920068              0.5380132318043411
H              4.154393318956105              4.481304848380837              3.2230563297593267
H              4.092620396942271              3.8461395405720484              2.7838597226342205
H              3.388337054212334              1.5272470679467849              3.2773161501193715
H              3.3530963113202494              2.224152780647681              3.1144139437833633
H              2.8815322908560295              4.149124823862016              0.33107191329282537
H              2.6120511063891994              4.701605067214714              0.8021891568470052
