72

H              1.9258005564112022              1.2418154432721302              -0.3521884155181073
H              1.2841998632431078              1.2791261000690033              0.08429900295216627
H              -1.616751232075465              -0.8076393784041238              -2.325110658669705
H              -1.2226854646305254              -0.7627631248030541              -1.6715789113348871
H              3.7320785610212037              1.7334427744010417              0.8348272427032416
H              4.362036255816531              2.0403060786391745              1.0123958663068884
H              3.6562728566885214              4.140924192091242              3.1489729259451695
H              3.9310166108136535              4.192634557805947              2.488236216445314
H              1.465337817062228              2.0536434553606284              2.590197108942164
H              1.7643522341020879              1.7301798717435846              3.2107225351823003
H              1.8723982263697507              3.936817716432275              0.3624436800385331
H              1.352079688321061              4.003646849170704              0.8858199438421324
H              1.9188059845262384              0.8759225077360305              -0.3648551978033001
H              1.412949603158027              1.195672033038579              0.0738747902387593
H              -1.8658794237579162              -0.7130492894122167              -2.518833679040132
H              -1.3241263985164777              -0.7965038766185849              -2.0435406772777824
H              4.006830375447191              1.6436512728894384              1.0288705806401615
H              4.430668210329435              2.232925051569597              0.8934197863625817
H              3.6075742770922252              4.709898615482939              2.965717284644273
H              3.8532907261045937              4.385446472788394              2.3371804810608086
H              1.6071073579158546              2.05898101873805              2.413754876975646
H              1.8916620838072915              1.8305034108046985              3.0671425194129043
H              1.9288216257432134              3.6806402863996555              0.5363410924735081
H              1.4924290878281543              4.231145490909389              0.7725846954340201
H              1.8190088942921039              1.215078009392631              -0.4132860116848534
H              1.1104085559345964              1.196975958578521              -0.25828323286279203
H              -1.7721939467099268              -0.6424643887408201              -2.62740040566079
H              -1.1858214195832397              -0.7021020908209771              -2.305531896349871
H              3.9689538584534088              1.766752851888697              0.6380503556320981
H              4.361754534962176              2.322935938554282              0.7021760914913627
H              3.6263965632940187              4.52983778401505              3.113176829596371
H              3.7834186829999243              4.510176026599129              2.440287022087173
H              1.5053496648681945              2.10132858334988              2.291795477103438
H              2.034337375367817              2.101072675470683              2.7742014298074786
H              1.8359718379483456              3.738920203385302              0.29194135373608904
H              1.4988534223207597              4.176995945896808              0.7668074195136048
H              1.7552073129524373              1.2111662884369603              -0.5821223920867177
H              1.3086966611385593              1.2892538794590684              -0.09107563504983358
H              -1.442629136407277              -0.47186674520180505              -2.3639810311543625
H              -0.7731904393391779              -0.8552103059900866              -2.2479990257183156
H              3.9699989080224656              1.812229551288183              0.6612556265417585
H              4.3061351849213585              2.441601642764993              1.0820462191757603
H              4.081665392933692              4.08100166686569              3.143644290084278
H              3.9180728687537827              4.547517068732473              2.6346312223943182
H              1.5750095594378788              2.2152712967439636              2.3169550633118883
H              2.1065413762677605              1.982426799790789              2.806650560872302
H              1.7196807966184549              3.6909819267899087              0.27815098724618476
H              1.7123245758097154              3.9929941597481817              0.9561480873736408
H              1.4656580688731558              1.406306110267589              -0.7223207984912527
H              1.6914283340589762              1.3149902155754878              0.05098098730062335
H              -1.4179247291216965              -0.46606853243856755              -2.1653132962134243
H              -0.7379838007618933              -0.8089176725507882              -1.8762876632004983
H              4.552080257259337              1.7627216116474975              0.5496933010754413
H              4.357099926879756              2.451608777441815              0.7307216572114836
H              4.1710098065684775              4.189705500782097              3.1329009098097296
H              3.9555597378332896              4.233546818163936              2.47139757684766
H              1.7784775388295064              2.384338003812038              2.6393435482573375
H              1.6493819274528252              1.6589169674474595              3.0302109713780045
H              1.9106224085086225              3.713358243846224              0.23696889627461332
H              1.6318145279511838              3.9691594321621624              0.8793018120788798
H              1.7846360003473862              1.5056197971270964              -0.41865073046115786
H              1.4094320463216528              1.0422776063428945              0.04649856266673775
H              -1.562182723887912              -0.5229238135842725              -2.321655317943344
H              -1.259832831944233              -0.9072723625393454              -1.7773563929158638
H              4.013887388707631              1.695162662338658              0.511519661298572
H              4.53746018015452              2.1499300666416805              0.7169489803168975
H              3.8372540933476986              4.040054228677475              3.2906410533498844
H              4.004578682378609              4.171629781536849              2.5767815233423357
H              2.037307349223244              2.167819412485636              2.491127094187916
H              1.5446746653757464              1.854928120248796              3.1102059045236716
H              1.9477877794166105              3.887675170930302              0.33663294485428613
H              1.383223195726734              4.157774156955166              0.7137945386909542
