72

H              2.3072062542827796              1.518210014848498              1.2147847377948706
H              1.6618034608560104              1.4824090551067761              0.9110365330661789
H              0.5694641274840339              -1.0934402700170633              -1.9376500174575835
H              0.37705676976048075              -0.4380155471314937              -1.6125311030365468
H              4.631262101428461              2.272408287885836              0.774366869024453
H              5.1105416799937595              1.7912607932304083              1.0327938208584828
H              3.559061191065959              4.351161078100711              2.787619094380673
H              4.255947533757541              4.602847144781556              2.972803181827743
H              2.6985483032727107              2.1581114241524726              3.4365262256744256
H              3.190983360558338              2.1424995294607              3.9898167993762077
H              2.4973556285527585              4.436667670350898              0.7581652244394496
H              2.952414254950056              4.110639982414347              0.27620377906296706
H              2.297035544933297              1.679568413903645              0.9698358547676064
H              1.5780768845024817              1.3837912694350323              0.9851024143399255
H              0.6666746801992155              -0.9913580782305883              -1.8517162357233765
H              0.2228593565920635              -0.45829194578165694              -1.4708880892622136
H              4.594064180822595              1.996098131934254              0.7249895861252698
H              4.7231662146171685              1.9927354574997562              1.4419380901667678
H              3.6273337279732916              4.423637583047863              2.889796740074799
H              4.2948773090872026              4.69745349528978              3.044348906269873
H              3.442659885755333              2.5365587842418593              3.443511608830386
H              2.808584862708701              2.077436013679526              3.8593898196714167
H              2.6444276838082406              4.292573359442485              0.41867908555936995
H              3.211386191991584              4.319633913813362              0.014830578801519997
H              2.076191277540945              1.5374714304082069              1.242977076611179
H              1.7792283702614577              1.586385860171387              0.5972882947483791
H              0.6042027039426061              -1.1003015879797542              -2.0183799299327374
H              0.265995290008156              -0.6002400414056787              -1.6518436391391307
H              4.703002856902724              2.332765668770338              0.7975486878567922
H              4.826800916988634              2.0062349640759365              1.534927512295711
H              3.6176505990590515              4.794398256650536              2.729928184900202
H              4.3193087464696776              4.80570016720216              3.0332741717123315
H              3.2127300219517725              2.270813461139411              3.446016743579345
H              2.8671576600502013              1.7086431416695034              3.8831095065365515
H              2.9048668818054613              4.285285412309813              0.6859207422102217
H              3.2149512554667736              4.257481172484804              0.012134722515481925
H              2.28702241392152              1.2020655540638605              0.7823136599723263
H              1.802270229686138              1.7211033014981287              0.8366402251095302
H              0.8923255428148411              -1.106578851372274              -1.8701311638824418
H              0.25034224601935834              -1.0455502401360353              -1.6492254226305452
H              4.847558252145726              2.3235359030077807              0.7024301616332255
H              4.9486644310545955              2.2337167159161964              1.3629814465042636
H              3.5825128927453793              4.539608039915422              2.869065949125864
H              4.339667933935226              4.667276483911066              2.9855292004173926
H              2.781487223379251              2.4088962186646046              3.4970292524576783
H              2.6342659820133467              2.2243834613562252              4.190074476969233
H              3.097100755777412              4.2476407818290225              0.76335432536692
H              2.945283270272148              3.916746713271376              0.1180724255153997
H              2.476113206364245              1.5786302381084119              0.906315721613134
H              1.771402376784424              1.4675730789708479              0.7204704593832907
H              0.6294612925784615              -1.204373926995367              -1.8039619158349873
H              -0.13448351233615163              -1.0436050289613907              -1.85547790389271
H              4.737075667505503              2.536600567421261              0.7975359118934273
H              5.063363046478197              2.3491687176395075              1.4370476373202419
H              3.7996745975111605              4.379478835295891              2.5651587335819452
H              4.261509652119423              4.770156351629983              3.0171124726276046
H              2.624684173185276              2.54537249663226              3.635900034219719
H              2.8892123042588795              2.284433224912335              4.320973130877262
H              2.6757538438217976              4.047608277140731              0.8206718672352268
H              3.153373839395195              3.9700381572471932              0.21582329169410505
H              2.548946689753814              1.210661233013175              1.0960628600009832
H              1.9304322785883323              1.109008101484589              0.7831094581245922
H              0.47943105416691034              -1.141918515463056              -2.1449584391746397
H              -0.07752339015677435              -0.7037595811920311              -1.6940536142900697
H              4.567685178818454              2.430685101856587              0.582226892734533
H              4.838252293548404              2.2484585475512415              1.2290798908346583
H              3.732837105592567              4.26045871183919              2.613110532942096
H              3.9953273753078173              4.706307466675645              3.0830191183332385
H              2.844091954178856              2.356664313617765              3.3987138091590903
H              2.872388385996577              2.1080799957171266              4.16449935982945
H              2.443485395225146              4.111923089348714              0.6497982558642871
H              2.9600848833943947              3.9312936624355097              0.1227925136582884
