72

H              1.7527220307906928              1.4363815512487121              -0.3251953395228096
H              1.2587344475951026              1.1123747037160503              0.10641488993133005
H              -1.5749132779552195              -0.43118546643196015              -2.5210581569990564
H              -0.8926724396421917              -0.7379272942574343              -2.1337566926844413
H              4.421022663747463              1.6730893771787456              0.5991547045301763
H              4.57079965529577              2.331484832376793              0.6114270990625921
H              3.666531615141951              4.439757384391605              3.178353514805966
H              3.8473071911379697              4.509751209490802              2.4945324107570337
H              2.134375544897444              2.0992632450714264              2.4776115577110076
H              1.8847906754028567              2.068127842512749              3.201454200351826
H              2.159854909700067              3.740082153230556              0.49985960030551246
H              1.5655013921117196              4.079992129990222              0.5686225063762055
H              1.6188407796150894              1.8240583901331255              -0.3246328153026715
H              1.1798172764224992              1.2513040542709575              -0.12066161731758233
H              -1.613631297955051              -0.5317271445716979              -2.3745773890554664
H              -0.9997675477918079              -0.8006923965033922              -2.1556452793208063
H              3.9794971457661807              1.7579096910436864              0.7127652184869904
H              4.432676964610712              2.3265736752904793              0.7958716402323464
H              3.602299239388216              4.09416680109698              3.0497904313809996
H              4.035046196641509              4.447186208160153              2.539929748306756
H              1.7448497071046607              1.808421722775748              2.545893872528001
H              1.9558790069556349              2.0797400061770173              3.172633232698755
H              2.0270502070147183              4.095849192617876              0.5299728833136979
H              1.391264710270029              4.05846980248041              0.89919126035718
H              1.7007369885286265              1.32284381497016              -0.4171156583403678
H              1.4627479386991322              1.3250232128378356              0.30368513250567075
H              -1.6653702817764702              -0.3038454682045134              -2.107880929147543
H              -0.9625206564089304              -0.6979286601290857              -2.102533627818635
H              3.9411522533595886              1.8012993255544865              0.8355839686458612
H              4.181318865780099              2.3641247548167565              1.1150057179107267
H              3.760331474587868              3.960543471447009              2.8411062362154578
H              4.080238250270523              4.49219761990666              2.5237023302920094
H              1.653547012940123              1.8085673807820746              2.5371162019237703
H              2.1254931403787745              1.8304910715871925              3.1306223068238874
H              1.7788866771567948              3.8202282642992267              0.5335782193683305
H              1.6619663301512733              4.13009829092163              1.1680962114988713
H              1.5957564977172654              1.462482330106652              -0.25457536767051137
H              1.5121124036076932              1.1182710677377883              0.3719776072194513
H              -1.7599997443973845              -0.3024798989772306              -2.2819785921888425
H              -1.0032261846203752              -0.41976439663906906              -1.9382783426101062
H              4.182678901534242              1.7374439093357874              0.5486498130449449
H              4.468590879014269              2.366625700169979              0.573989684973155
H              3.5891470295333416              4.169835671898472              2.9220790938227497
H              4.126809899896923              4.400572163673078              2.42664085140113
H              1.9524237793832449              1.9329042213611112              2.3409490371864274
H              1.9468766240002133              1.7576318179059016              2.9644982159888587
H              1.8719816982726842              3.858984502231412              0.41487588863799796
H              1.7250841441046576              4.4122283511325975              0.8209248750273035
H              1.9438317009294739              1.2754948231423626              0.06734368435537078
H              1.2287027719008514              1.0178542787975566              0.19539513522469545
H              -1.4953822998195907              -0.34296404164043814              -2.449270430561523
H              -0.971146476283619              -0.429353794656306              -2.0085842761597155
H              3.8594910382243475              1.8337083499157674              0.5363735617523194
H              4.470713915758351              2.0975268436355403              0.8103865355165175
H              3.660794594666219              3.957734144368858              3.3223878396207946
H              3.8300796302551974              4.471783683588301              2.739275568947814
H              1.9789530769232018              2.3397084992702597              2.2440601221762217
H              2.0618806477070732              1.7070126600660216              2.7202965156423287
H              1.9588200745144186              3.869531025780568              0.04209143670581319
H              1.687355922277315              4.071009318390766              0.7695722237347338
H              1.6860325822718782              1.3283090008714062              -0.2911259246398533
H              1.4547099996689226              1.1558637921535762              0.4176773470774731
H              -1.2434711603120132              -0.6091060369104552              -2.3429293489525866
H              -0.6714503122509218              -0.4621517627165371              -2.0668541947592933
H              4.347438067393063              1.6761214650764777              0.7906868147712921
H              4.724190485274236              2.3098634336465325              0.7087912404153612
H              3.711910228574942              4.2101487598066765              3.1677087864371054
H              3.926838954472092              4.565262821160431              2.544085151437929
H              1.5762025488626024              2.074103746224848              2.5782856746305014
H              2.181516093473478              1.8762705504867              2.9575644770821645
H              2.0748364610884678              3.8014759018751647              0.15085685516733524
H              1.7647481915342884              3.9830184952423577              0.767288552971839
