72

H              2.034530903891111              2.15297347961518              0.28333717717542944
H              1.7629159866109683              2.089411354060497              0.941898088377622
H              -0.6130669952532194              0.044095406590012              -1.6307880267220511
H              -0.27009620227841996              0.28586492668507774              -2.1425465143519156
H              4.830149653100771              2.124602776140695              0.8737110012873402
H              4.513408168696404              2.287965346188298              0.19184064406587342
H              4.132992162394559              4.707245503920575              2.9265817308248465
H              4.235115902395153              3.982950365761799              3.1501885619653565
H              2.731170394217419              1.4367027399891266              3.5839949499785058
H              3.4542311530777683              1.5697658576896418              3.5517915258271744
H              2.5678666185403602              4.5398859733794135              0.04060536840915404
H              2.6642512082961325              4.6606541123737975              0.7639972125301079
H              2.2853814356851294              1.9633070883784638              0.32154378387892013
H              1.623243903232105              2.011437467486176              0.594992574889405
H              -0.7098476759684869              -0.17851717026482056              -2.0512039201540104
H              -0.24196939125965933              0.40456130037186644              -2.2395244214969683
H              4.6553464379540035              2.103162801020033              1.091750352680211
H              4.15334786634978              2.479513567034964              0.6460779535122584
H              3.8363262957301623              4.654728380099554              2.809707935462543
H              3.9043983261766164              4.2780128212553095              3.4279075853115186
H              2.8400249585792556              1.4868385706929457              3.1626813616107445
H              3.3411572388217197              1.965854132907189              3.425095812799465
H              2.921866526814396              4.332236888622377              -0.10316478894361032
H              2.5431189888878905              4.660638637876343              0.4459150455223826
H              2.21920741362808              2.1107192626955897              0.1916260138927947
H              1.810689908854526              1.6129087763099808              0.5578003544115288
H              -0.47202689011954924              -0.2628827090781434              -2.327539127896321
H              0.06241729180043703              0.3859503709034901              -2.522806422218441
H              4.932299121154161              2.3847624938200327              1.1886629754661844
H              4.360031934849951              2.461511857424365              0.6804324573040066
H              4.026192310262679              4.909650570280292              2.6413232829398314
H              3.9000920548869256              4.3448636115304655              3.2206835115427705
H              2.9480850753708765              1.1951076990946923              3.153049480237463
H              3.1185967487179265              1.9587117983086424              3.243479468978057
H              3.1530208389263272              4.44125577369096              0.11053625917907839
H              2.5139008329786723              4.576858760520126              0.527214515581284
H              2.2772602676836557              1.9047893609204432              0.36900925787679434
H              1.9484221143875242              1.3486210982029696              0.7821437209960193
H              -0.3168368986840518              -0.0777125702178841              -2.02014372474222
H              0.17924105349776942              0.2901273443406963              -2.3444668346661555
H              4.736606027639531              2.113492012830619              0.76724213337422
H              4.525853121865348              2.7748659267438542              0.423447466366143
H              4.257858195579319              4.614187083825372              2.703279325608242
H              4.06124913099245              4.441253431869962              3.4413004131780776
H              2.9067480231092717              1.4931119334352947              3.324711716493178
H              3.2675609894709945              2.0870744245020902              2.9896635481467557
H              2.796020535508092              4.756633043539577              0.06330997807463522
H              2.673025994572142              4.252323203451775              0.6107877666264072
H              2.334226499269936              1.6988504093411958              0.43224251958679455
H              1.913857026837916              1.9057579605222172              0.9679933816095703
H              -0.6463490763909702              -0.08106613832738851              -1.8627205673278953
H              -0.01908951056334239              -0.08129627232757075              -2.3992400174744404
H              4.8150675726815715              2.0098546405800124              0.9212732660565249
H              4.921364733674238              2.6497816633328637              0.5014794918800057
H              4.283636109612577              4.286247244290208              2.8458871760843083
H              4.136972200312996              4.4407906420711845              3.58342716745528
H              2.9479465429425873              1.4309920073933837              3.1709537305173905
H              3.069213440548377              2.1343329601732637              3.100730908726284
H              2.9679911471809426              4.696320740365025              0.018236604964043286
H              2.4551094711614243              4.338423479869286              0.4951931285528371
H              2.2413094168245378              1.8885583111992794              0.22402192943927937
H              2.265090253634532              1.8243356233739056              1.0203105501289844
H              -0.5884954945855919              -0.052164696801217214              -1.6875531601479126
H              -0.17933903936244985              0.17212389005805082              -2.3289435601770005
H              4.760228354527023              2.025072177701161              0.8706352171391998
H              4.591657274790985              2.4920200207869034              0.3917281496486566
H              4.35168367855494              4.3638653983964035              2.906008325349677
H              3.9535490834140963              4.0583671384851145              3.470860277538099
H              2.613302058201413              1.3063677132452673              3.5002577307539355
H              3.159690364575111              1.9070465843728273              3.3356560886481867
H              2.7370655335642495              4.398385541646936              0.0026343274368066352
H              2.4933240212001344              4.089356726453918              0.5937781820812044
