72

H              1.9268550062214094              1.2543046884709794              -0.31884566820616367
H              1.3223777625025943              1.2508277923920188              0.07239819041377706
H              -1.5877304787115125              -0.7659204012685625              -2.329865517191155
H              -1.177961785445928              -0.750233959313932              -1.6499521891873374
H              3.6891279580446126              1.7069931477556533              0.7748351880216772
H              4.348957098055365              2.0714553223738523              0.9738362915799744
H              3.664650524861411              4.169732670642642              3.1521902944984657
H              3.936618195463479              4.221184944097968              2.4914602368254224
H              1.5768145271001826              2.0595210135130424              2.6608644108986894
H              1.7495135000742583              1.7152404203413045              3.282195256368491
H              1.9041554786447905              3.917943250168083              0.4059441805131112
H              1.3486233993619876              4.020161042979018              0.8177493079841085
H              1.8932796365839766              0.9398390947862147              -0.3170289627844524
H              1.3367124713036151              1.2037403409795975              0.04661332790440222
H              -1.8982417400776432              -0.7130424746517288              -2.536907408626549
H              -1.343550546145205              -0.8502002320072868              -2.060465951155215
H              4.046839130307388              1.6344175811502877              1.0593936033316025
H              4.476056309306948              2.2629766658211983              0.9091839382184822
H              3.591044953857649              4.718974714765935              2.9224867436379376
H              3.8311834177527535              4.3763375004273035              2.3551873211718393
H              1.591992995689467              2.026492332668717              2.3726273270241074
H              1.8940696788964722              1.8507377552393405              3.11189480812096
H              2.014127491008487              3.75068410596396              0.5983814007714134
H              1.4475161876336533              4.266571276046812              0.7812266727887799
H              1.8206668367816157              1.2546238798583265              -0.48327771062341934
H              1.1292538874192848              1.2572675918992222              -0.2576185748755542
H              -1.8410339834963325              -0.6031943743321143              -2.6166735823475094
H              -1.1194934007024404              -0.6818420094539472              -2.3402978816604745
H              3.887390446476465              1.7305481771773916              0.6660704613088044
H              4.366432909992965              2.3794889215348287              0.7518969476937252
H              3.568325164708596              4.423462212448102              3.1056861851984254
H              3.829544691541273              4.563078813889036              2.4203101719786617
H              1.4554415919570933              2.0672842382920127              2.2985792092780906
H              2.090321485714713              2.1060162141246788              2.7838932324183814
H              1.7619106201708166              3.71376745026804              0.3023626329167863
H              1.5202764581442993              4.1276679115291905              0.8354833577207064
H              1.7501880372916665              1.279716719289327              -0.6005223099479032
H              1.3538847739422657              1.268240790439818              0.01947771065681291
H              -1.4827109000321501              -0.3849307576486346              -2.322511124451681
H              -0.7210432507914324              -0.8121026270449189              -2.200879763328872
H              3.9427478719298064              1.8529983953352163              0.6524033989431004
H              4.250961219833221              2.4386884414790546              1.0068781493452663
H              4.070125567529481              4.045062507220078              3.1124910115688724
H              4.016258774568376              4.583485338863062              2.5861227702885534
H              1.6686924627000232              2.156836737999793              2.298096591445922
H              2.1279395639015184              1.9510519139616609              2.817084171585793
H              1.687158721935968              3.7098795327580922              0.31541659902779406
H              1.7540669141575724              4.085889241543618              0.9471615216267355
H              1.5533806682192444              1.3348838003476748              -0.6476109089446903
H              1.6045964845200942              1.303100592177285              0.11351850805434417
H              -1.3517773983417456              -0.45576917643000875              -2.150612490150588
H              -0.8229769527377424              -0.7420151701752594              -1.8966444232823811
H              4.604777263180754              1.762131920355355              0.47990941793470704
H              4.35431337576503              2.4365213585026066              0.7888398986569486
H              4.17945636712089              4.187091074621976              3.203484617879652
H              3.85967122131018              4.1949308350526096              2.4961020808933005
H              1.8166845167545416              2.3869829013793082              2.620970198512537
H              1.6625207600190595              1.7065280530195317              2.8944074282182966
H              1.960767363117232              3.7215740534206456              0.16535642408134746
H              1.6478312799845096              3.9324626104752527              0.8744772482558167
H              1.7438163774252249              1.5250312176037684              -0.39876238731186203
H              1.4812083554213649              1.0061010225031337              0.06577434115750844
H              -1.5168725715761533              -0.5682174518526258              -2.352888688620743
H              -1.1692091052637401              -0.8374302107683096              -1.8194412165096832
H              4.071614859859167              1.6644875975883489              0.537633556330576
H              4.663892365880912              2.1430915944091438              0.6685214207801736
H              3.791841222985189              4.020930955283126              3.2869871216784508
H              4.02003340163765              4.225441857422237              2.615418452733832
H              1.9842632637442799              2.1499084289438093              2.4473934339009293
H              1.6020344493524237              1.8761441319522438              3.163761142373846
H              1.9515745398058144              3.8625599607216037              0.2582449658624772
H              1.406862622659521              4.136640397726913              0.7140618947166709
