72

H              2.466633276661065              1.3125805087251181              0.5737497216860219
H              1.9759689633193878              1.8878971586366586              0.7513535108906085
H              -1.4810869720613506              -1.3363978188917875              -1.7347593809858255
H              -1.2015979777616133              -1.6982212578096059              -2.4888675079114893
H              5.047391327460511              2.34688260120458              1.2171304813083699
H              4.870558672393258              2.432440066586947              0.46481459068493686
H              4.5219745360998465              4.666612306571289              2.9427884123358687
H              4.589563330645689              3.9716979108458403              3.035410029262258
H              3.529692560975977              1.8311710947163482              3.505795632710753
H              2.9904302970504366              2.33271800708788              3.372435279922508
H              3.1432275985508182              4.424627780791508              0.7280971620307143
H              2.508232871980763              4.5857909592685235              0.3961970233488858
H              2.7217820860461686              1.7136946101668906              0.7680060970487025
H              1.9305650494776128              1.739860439249436              0.820228696021484
H              -1.6505536576419542              -1.5669737108271393              -2.0411550855479517
H              -1.372456699042577              -1.7578666670071375              -2.6215939325602893
H              5.092146051394641              2.3974133469884213              1.1977335486887553
H              4.989775226349537              2.508979058236613              0.46501348503643103
H              4.47362661867574              4.671279357743418              3.1300046167793756
H              4.481873755284005              3.9157277570302926              2.8450962508184054
H              3.2384439892907846              1.4613230222687745              3.3983762927446177
H              2.7898795141483093              2.07624968054258              3.472813123703259
H              3.088876400334384              4.608118834206482              0.7072874700977732
H              2.509781059372841              4.208145525743707              0.3787767679272225
H              2.5750798334256837              1.698554397832977              0.7158052558599854
H              1.8546792618413643              1.686919759201302              0.9067302884311462
H              -1.6066227298398612              -1.3523165060992497              -2.0164924566421347
H              -1.156101748938167              -1.600973772501857              -2.512295660795862
H              5.226786178258395              2.2900519311026355              1.1918336113182668
H              4.892824365665351              2.535573636389075              0.5300597389641952
H              4.598057949250194              4.6374935326154              3.019141618351998
H              4.668140321567882              3.935934498134973              3.1509303865835667
H              2.8944697396278407              1.7206933014639              3.713357078285707
H              3.032948256847572              2.3711668204180274              3.4765607024648366
H              2.9867066180342574              4.31260266408705              0.8630530000947197
H              2.58026483013908              4.1889115234282              0.2772345851685998
H              2.3063665970945997              1.6524588881683693              0.6315181145957757
H              1.7449607930034996              1.9299800718741502              1.0434259803786623
H              -1.5704776532452567              -1.1599590515386788              -1.7473857485884337
H              -1.4152430440781358              -1.2112976634042838              -2.503016651682384
H              4.711063838580524              2.431115789128138              1.1422434988541463
H              5.003418559052703              2.5375096738898084              0.35994489050526807
H              4.516487364778358              4.785512649672866              2.7079429119394156
H              4.889501529181147              4.268947029429648              3.138725516502194
H              3.5050536382001867              1.5610126990994704              3.558128508454484
H              3.246677058494484              2.257119803986789              3.706372382102359
H              2.7657521507022005              4.507428466565886              1.0677296006059194
H              2.8542227293259956              4.498703002826882              0.3505924949945885
H              2.3376880286660153              1.3655293712505492              0.4854246943816578
H              1.6731443509265946              1.6538487420021384              0.8969910980240543
H              -1.3944183714918243              -1.1970404793771643              -1.784067878621544
H              -1.2920144828013143              -1.2653675028929376              -2.469346091376523
H              4.983817664243686              2.3248583183553517              1.1500142917991294
H              4.7145098083556976              2.2089020492008045              0.3802723696578868
H              4.1912728692513355              4.792735261354396              2.89187752198909
H              4.559355237083443              4.109856788793184              3.0545969882336306
H              3.6605402134686775              1.8628593409234246              3.625316537484809
H              3.1339465488716587              1.728176035931998              3.2846281648789244
H              3.017525725091041              4.383123379532265              0.9930902413483012
H              2.9835916763836816              4.399331496277822              0.22047197238595823
H              2.380767267334484              1.4814499568930912              0.6225986087246228
H              1.7891710456247412              1.9529003730510268              0.639197974685393
H              -1.15738351083097              -1.3626598398037824              -1.7400044085241586
H              -1.0704653471063355              -1.4500985404453803              -2.551346323990421
H              5.036568205360476              2.252450208027728              1.3797627626165785
H              5.155509900737712              2.212018305026036              0.6445776639268185
H              4.35202804486727              4.661147955489488              3.074427184112019
H              4.599705824528844              4.046606855346546              2.8604978783590664
H              3.530611537923162              1.7877547529896312              3.65418793421097
H              3.0226851765347567              2.2443683991769725              3.316313982728648
H              3.26065106167251              4.552070037645426              0.961171111360911
H              2.8891642382003346              4.578015124709012              0.2726139431084426
