72

H              0.8410472432805948              0.9806635355814723              -0.4594309408412627
H              1.4944534067204804              0.8139122564201129              -0.5504519863762019
H              -1.26325772289621              -1.9974168610066492              -2.45958639056727
H              -1.6221878488294768              -2.3530529028305676              -1.853288487630773
H              3.48067452692774              1.153449505755668              1.2038154263998422
H              4.217731691187525              1.4387746714509702              1.2345720074657076
H              3.8099870919668537              4.117119070056682              2.431291722486736
H              3.765933902645685              3.995648632497309              3.168722390209068
H              1.3579386460519256              2.0774641110229086              2.7903481892447797
H              2.0050836037077406              2.2228434238600014              2.4089111218040915
H              2.5018125703426812              4.005807843126801              0.2849818123181874
H              1.8717890221851452              4.035291232050239              0.654180235876229
H              0.8641965955170514              0.781798199727885              -0.6799860040377135
H              1.2012624589383385              1.1916558781908029              -0.21450882898733561
H              -1.5276478029975682              -1.8334647025971706              -2.326102751222451
H              -1.7230159965776508              -2.3905829304581885              -1.7989212172958498
H              3.606959335223921              0.9824967112592885              1.1413111246154213
H              4.028760451860631              1.6566421655735473              1.088703064203044
H              3.63234148460425              4.289861703244195              2.4402242978823327
H              4.175941018123126              4.24994304836729              2.9550049071819604
H              1.6948431447664547              2.0760958392440227              3.020388690009076
H              1.6102339154780139              1.996586034564356              2.306522305251115
H              2.4671462307114713              4.203023806749263              0.662828284444524
H              1.7118366689250282              4.092575763693584              0.4710923550950677
H              0.8808574770894514              1.0773261959375195              -0.38812211998182405
H              1.4764363091699497              0.6861456364078823              -0.455603909063794
H              -1.6574420461642443              -1.8055224799844054              -2.3752334548859055
H              -2.0519424598779885              -2.1814396823795565              -1.8488271027099146
H              3.51680784543671              1.075677486373895              1.0727473409700294
H              4.057852945551392              1.5781812961268087              0.9157618576285591
H              3.8247451423342365              4.369843301234314              2.491591756633851
H              4.119962744474284              4.000950626056457              3.1315576238596283
H              1.633932912375272              1.9409469872604306              2.700409409592493
H              1.8519759691360334              2.29012112451522              2.1844655065649454
H              2.4563915438347337              4.260954859627636              0.40266684795250157
H              1.771656766152462              4.324322964534765              0.735523898216183
H              0.7036935302720806              1.0698217260325125              -0.09589431665554496
H              1.308810775375916              0.8601308800924689              -0.4066761606897929
H              -1.2772247323301271              -1.833308231499357              -2.195453195153392
H              -1.7988310963359704              -1.9047007628586012              -1.657299150404948
H              3.9311121963276867              1.030265662766318              0.9640295121622156
H              4.054266935933619              1.6319813481578727              1.2549246721390248
H              4.04986140903696              3.9374983349810875              2.507089305694931
H              3.9312803953321565              4.105438646797753              3.2329541583985284
H              1.2084024445931616              1.957007173564384              2.935372799043416
H              1.603531028130031              2.1857005975803125              2.2221580303332003
H              2.3091567937907698              4.314519321603479              0.13779176621517103
H              1.8652650249154294              3.958226408975273              0.5674270511177958
H              0.7308128977622523              0.8278012147445614              -0.32947122683019453
H              1.4641980208467884              0.9822685892920798              -0.10679745516743798
H              -1.2474756539559253              -1.8570934283700422              -2.2451959414817573
H              -1.7269328508595598              -1.8788650301623946              -1.777584186099956
H              3.9025213087934416              1.0934833161203035              1.1447788546723743
H              4.253059115186283              1.7461040389942182              0.9735056840613312
H              3.9414338691775517              4.042764319717631              2.3707021055041686
H              3.992012795004717              4.2666132055331385              3.160611569956484
H              1.4625730661662903              2.168421988148395              2.8642099599531154
H              1.982943660889119              1.9768958285477782              2.4130188835414623
H              2.699494108135851              3.9372420958739753              0.12065612374229007
H              1.9325598765915877              3.904536129033525              0.19042307294435093
H              0.8369288311737407              0.7068524112665093              -0.27636229807303014
H              1.1943513793167784              1.20139891471635              -0.6695791980516304
H              -1.342174222415882              -2.1000928562687506              -2.387643924394047
H              -1.677204247502272              -1.849170514497614              -1.8915739773405305
H              3.708603547940942              1.1635139832857158              0.8606076971259677
H              4.16105783884741              1.6499104199305896              0.8794142761775294
H              3.5687569814348996              4.093134609016335              2.4312184321838894
H              3.810913225295483              3.9978290067393427              3.1522087921855433
H              1.662934189407617              2.055210115145112              2.951527764056601
H              1.749930625887611              2.260404866195553              2.2615838081339423
H              2.64735728783203              4.019630000200294              -0.08121828923113737
H              2.096510968629533              4.027861219230996              0.40243536594365803
