72

H              0.7638334358122819              0.8063075174437458              -0.5010729927803254
H              1.4163643451147974              1.0622924899072796              -0.3683742050351374
H              -1.551843342909883              -1.4661192795329379              -2.454566066786289
H              -1.7650994173067078              -1.666911849997263              -1.686263168210069
H              4.025029566032415              1.3555367949013188              0.7370648312708159
H              4.060392869132381              1.7857678450290633              1.3212804962203228
H              4.170223981798657              4.177395549968807              2.6002114642690075
H              3.6486116389207077              4.103897005492289              3.1314280330186914
H              1.286705912881321              2.1037624692136494              2.9274216417005996
H              1.4262153356565528              2.138492864957084              2.1364429072259563
H              2.1359117111763353              4.1327832166360805              0.17754243841314868
H              1.7666634620612718              3.912867567853308              0.7868644566232562
H              0.8449924026185399              0.9797850399529879              -0.13212941169040388
H              1.4750085286206496              1.1470485164254125              -0.5170477805566746
H              -1.3114666132859265              -1.5446436922344795              -2.374012255281335
H              -1.458392337426913              -1.4762657289578194              -1.6333737742058305
H              3.807958547107351              1.3369709424380294              0.9300206801207358
H              4.269325791675776              1.9225711160336643              0.772304113871823
H              4.2446409141739965              4.40154903940594              2.5000524009900325
H              3.8445569767781045              3.976449896400504              2.9035032663206906
H              1.358020029162985              2.2859262949431502              2.7555339022859204
H              1.9658847366827363              1.9652247504108968              2.5127675267306
H              2.2794479321572276              3.907046634238339              0.07146216926854736
H              1.8530961863488957              4.081269150613627              0.7049795286309366
H              0.9602586638841757              0.7450237787642091              -0.5862155278253104
H              1.4304141844938738              1.3105373571288892              -0.42093875932572966
H              -1.3710374681137498              -1.6007526871209472              -2.34793505542388
H              -1.673493673751168              -1.6609504207434527              -1.6893752218546412
H              3.79988967486759              1.3528722609527823              0.6490727645135379
H              4.092139032318248              1.8855101063035358              0.9995987958606138
H              3.949605762279161              4.271785604081434              2.4394191424104834
H              3.731362876944161              3.988764760661592              3.1552883047207847
H              1.3135883327279156              2.415581288111895              2.6404278767062155
H              1.7525966791939895              1.8782135462660834              2.902063251151059
H              2.5780664331095062              3.9681048942651107              0.2810591284064451
H              1.8216572828046433              3.9426331411215783              0.37858567181689623
H              1.0019089669840384              0.5849765464416862              -0.6544244157799762
H              1.3837777175126085              0.9013834050252624              -0.13986356794339103
H              -1.5597953578532244              -1.7989671155110007              -2.594196678406562
H              -1.5681979285888583              -1.9860750491198804              -1.8418119466872316
H              3.858899190455539              1.2662903132318646              1.0365435426185823
H              4.41311906456416              1.672076354141771              1.110481183501148
H              3.868257276054657              4.489337424972227              2.515779710414585
H              3.6107680449752286              3.95214383305714              2.9786237076269733
H              1.0640763524145287              2.0993088879955972              2.689063882680349
H              1.8264024601712008              2.1717249809937726              2.6419933557322115
H              2.400700099913204              4.142936386707276              0.5035559375778028
H              1.6934515907761445              4.1265934024615945              0.6521395629515262
H              0.8014861675998717              0.6936944748194911              -0.5312911818051492
H              1.3754585993838357              1.0660890476004905              -0.051361071704521574
H              -1.6530290135656551              -1.4822927778891646              -2.3460624866327495
H              -1.6374068075535548              -1.966673601036092              -1.8808309588168413
H              3.411477638764957              1.266561522324134              1.0576499344717176
H              3.864114566737373              1.7959106090042856              0.9346907635261275
H              3.9966812962071767              4.641359197153089              2.4298157182158215
H              3.8148955570385414              3.9996447792168017              2.8828322790261915
H              1.5167559024445794              2.165337783715993              3.0557447133657973
H              1.648285416883291              2.0564076295592004              2.3436359372664852
H              2.151160837919663              3.926468764606351              0.5537495400097241
H              1.5233429030918852              4.171044458094887              0.9270527932768777
H              1.210862548930032              1.0443595213632613              -0.6526925829376599
H              1.2563380601625491              0.6152648279046733              -0.05310982037055707
H              -1.7633168590308739              -1.4628331903445948              -2.2583597706931586
H              -1.9303065726227926              -1.8954714348314647              -1.842801112371197
H              3.574644054506465              1.3983088572577151              0.9404649075162864
H              3.978331139988985              1.9249279968443838              1.0614257913912521
H              4.0993641149558995              4.6036728224244685              2.4356722112824816
H              4.019938807547776              4.01667701708331              2.8945270374533743
H              1.4648381263738917              2.115026139633934              2.8086596962670343
H              1.82716653752354              2.089468056228244              2.1017767645333523
H              2.334233883171139              4.167722572859705              0.7692321709895824
H              1.628929402905039              4.385249081297641              0.8584592956939415
