72

H              1.8189827825275948              1.9718523565218855              0.31879572873527195
H              1.8620801372987197              1.3012360285837823              0.6224628573291557
H              -0.8362214031402164              -0.03263562743314851              -2.1919714427036903
H              -0.09360955790158042              0.22061632989262783              -2.4797945165658533
H              4.871245129370535              2.0402880776537375              0.5269952371131333
H              4.44508744852835              2.7269778655080277              0.3866092871207224
H              3.8168051858375365              4.355366645218925              2.600899791898442
H              4.081201110511106              4.768939422925029              3.2707897382562026
H              2.831123258427135              1.392982364083131              2.917195632053279
H              2.7719675043254175              2.087038605965218              3.0540706662504378
H              2.9608600545773354              4.378622286976302              0.15672716479266993
H              2.259880638029148              4.313788659196154              0.5754199673560694
H              1.9656476591578953              1.8774381117327934              0.2181983393068942
H              1.7980735288427716              1.4034958584310284              0.8677482365012807
H              -0.7971684183286475              0.08890668004113295              -2.0463887588211005
H              -0.20237485514214162              -0.10914970854378211              -2.3375207215845064
H              4.364360164794098              1.9567880027785118              0.6124907602611722
H              4.787136227307159              2.5154814347685885              0.41226409917019713
H              4.082927621010363              4.024395117706443              2.8829265039725995
H              4.108274351155097              4.53372561668201              3.5172970055771673
H              2.7415102669598657              1.3084380194926517              2.9768070744850537
H              2.8581630137137863              1.9907162436650196              3.2480169872435742
H              2.524508155352999              4.640553243914787              0.17299390472310625
H              2.4179615590703225              4.085444226009576              0.6230402836156093
H              1.8843644281718464              1.8269477860100938              0.3038808555264872
H              1.991346890778518              1.6576810710296108              1.0164144633976289
H              -0.7550388188305374              -0.045121567460011065              -1.6673468766863009
H              -0.2746748066185691              0.0644939744495184              -2.075112461012876
H              4.558064677846421              1.782316367936924              0.6600810288787031
H              4.571080127725743              2.551879538512574              0.5151450621902388
H              4.268481648927229              4.1562381073016486              2.7382864489318446
H              3.957956312822135              4.257663755648758              3.3929069855792062
H              2.5349218493959107              1.189001639073431              3.4938016622372645
H              2.7609349753365566              1.8918562427764845              3.391482738240562
H              2.482423446558892              4.395516203291655              0.16993016257742413
H              2.4945882569012032              4.040923622224438              0.8013043696979132
H              1.7876988321838432              2.084480922968206              0.19796756079611683
H              1.5221274277616617              1.8531646533069532              0.8121880566950246
H              -1.2878256472887368              0.004396378597575192              -1.9766529613793242
H              -0.5005467541997003              0.1161778194584166              -2.1360430910861745
H              4.8088501950030045              1.9006595996285065              0.7962043716462127
H              4.571358846234766              2.3635164191548945              0.20159933453764275
H              3.7271270264354746              4.477296620518291              2.6468625488033823
H              4.075643358930466              4.366165592925277              3.2885726491507445
H              2.4061222853844986              1.5800449537953198              3.302214692434166
H              3.169745703944333              1.5240705943118353              3.6306162917457594
H              2.714138359009921              4.269450581423826              0.15939386418372267
H              2.269501388217207              4.510395973777985              0.7127049978302984
H              2.0154560287251577              2.1085628284852183              0.1166684726947079
H              1.4803924723201543              1.722006008536244              0.4003504755252526
H              -1.0615554573965253              -0.1664538653762939              -2.2181202604998407
H              -0.4839675669570248              0.22551619551122107              -2.326059194690712
H              4.180158711417376              2.0067195354082537              1.0175198678703539
H              4.2294828689372155              2.400529611375741              0.35868126179907894
H              3.475552621541193              4.508710541440573              2.6981910675284393
H              3.935512444882374              4.422629596772861              3.287537805066566
H              2.352699297083471              1.6536197658370144              3.305275593927271
H              3.117737211367106              1.460466551007977              3.4743327848008763
H              2.656460807587789              4.44479898186001              0.01933044501720064
H              2.318009086552315              4.318317786948922              0.6786326352342696
H              2.021628592472758              1.8542592075611155              0.27943058467333265
H              1.4183556764997407              1.428969019143709              0.5436017379337095
H              -0.7730842213101022              -0.11693748559132487              -2.1513063441103286
H              -0.20299536322695758              0.19145552386728457              -2.586145770871845
H              4.549268729872768              2.0356768344085974              1.1092797633620797
H              4.31175418784251              2.6356670883779745              0.7367503112379687
H              3.8027371354425736              4.660030331769031              2.4479586962016313
H              3.970793799657062              4.619744203229703              3.2012684421402535
H              2.625088128782338              1.2449108545197676              3.053803061638417
H              2.961334355314806              1.8388161182103964              3.2568241042492074
H              2.8193396183308552              4.4859399817403505              0.18521681484795965
H              2.4031831526141563              4.523867414115823              0.7839776962394915
