72

H              2.5800332981483867              1.7300494355843268              0.7964101045420663
H              1.9340899870877524              1.407841318264692              0.6407800447093378
H              0.9911572437486085              -1.0532825567831636              -2.0703635934128974
H              0.4209318865383105              -0.6176274119814037              -1.7307514805834525
H              4.760476257272094              2.5620339020160516              0.858792995798513
H              4.603969819133722              2.222729501041931              1.4415032845785682
H              3.674085668029129              4.632250183108707              2.8674411424879933
H              4.445811120710595              4.676529681414662              2.9577264658899867
H              3.4232948954757005              2.068140388448055              3.429490385859364
H              2.8330022166737057              2.2009909930316285              3.8452468135734272
H              2.9405787555680427              3.7537073346196115              0.510962255268086
H              2.7647621745409445              4.301616495385623              0.07964922156793094
H              2.391767189707162              1.3589047314532134              1.0473729960862723
H              1.9827646213394463              1.817741401780239              0.5723372778417125
H              0.7946152111974759              -1.2953226662616588              -1.9784380712261422
H              0.5587507383512398              -0.5779515342493191              -1.8281609623720936
H              4.59910993548101              2.713144311496497              1.006782338264139
H              4.915334365176968              2.022233575114109              1.1589128249947518
H              3.6632270143809187              4.488903442265234              2.942957934632718
H              4.459126576513222              4.4887094212843              2.9761326330275604
H              2.950367405034578              1.5869839559412662              3.6104973014848536
H              2.926499397438451              1.9493319620005598              4.135388942016247
H              3.0102387649162723              3.9885640590136853              0.8251899783167285
H              2.733736019275921              3.9671850939869193              0.20556279119499252
H              2.501774665519213              1.258680430218712              0.9078140329223463
H              1.8662201524052924              1.5875336867785828              1.0565378076540193
H              0.8825636202443248              -1.1040173206851505              -1.6328162845346468
H              0.36736104220540894              -0.5996691176545526              -1.6177483049534311
H              4.587591242706736              2.464521932919108              0.8603871685030252
H              4.893766738893409              1.9772298667542776              1.4263821322037267
H              3.9472806375433236              4.123441139744141              3.144244376783013
H              4.460964921009195              4.600374193254062              3.0330535415667335
H              2.986250505457509              1.964508309816767              3.5015623655501447
H              2.763897516045546              2.289010801795058              4.067260535830324
H              2.7537365932260216              4.066154591115253              0.7413832851256719
H              2.9824775574570626              4.004506157980455              0.07396135195404957
H              2.280701355068441              1.6207953992913409              1.3842271875919392
H              1.8919833216024369              1.5432173334574448              0.8206782788314442
H              0.47745129613552856              -1.0205112763571742              -1.6578825788843483
H              0.05475546973548886              -0.3233072358990228              -1.6009967625915644
H              4.4807313750060995              2.4358725698330272              0.8386048307943955
H              4.89130912751585              1.860340435902925              1.2082913882012465
H              3.9505428642773888              4.32188942942026              2.9387694167852434
H              4.336787389786023              4.976731074229612              3.0941972571097947
H              3.3063590805821486              2.355785427572889              3.2825252573282966
H              3.01156628394028              1.9204785256719399              3.7333182068239066
H              2.505297041705088              4.107724449118357              0.4878884479121372
H              3.174130681173879              4.363769439886495              0.32280786167085246
H              2.469068328334065              1.3410679414774627              1.1036935325043782
H              1.9164063071511022              1.6990448615116276              0.731181920157147
H              0.6365126561256287              -0.8819644797250945              -1.9971117268266225
H              0.2813459415498721              -0.47164796802432074              -1.5864284072710648
H              4.419240418786894              2.144601734316859              0.7092564622863169
H              4.752311290640289              1.8167406754519622              1.2340216274919513
H              3.465586685281745              4.650013586249098              2.944793858544951
H              4.19344304648062              4.804499388330666              3.1289593249741414
H              3.226181109868024              2.208856324873298              3.164700194813578
H              2.850685668228039              1.9186714033268808              3.7253256547971665
H              2.623005011296633              4.121508538365914              0.574284838415173
H              2.980519385286936              4.239628506376651              -0.031100067767600305
H              2.482368407235398              1.830976292521625              0.9031264460745507
H              1.8392084526411452              1.6858933276066037              0.6789311543705938
H              1.096834808896652              -0.9885127192089644              -2.0383146781172234
H              0.45911172481224805              -0.599581126384387              -1.7276007618782092
H              4.819421655199211              2.3079571784107094              0.9978457401107211
H              4.961250573634921              1.9111337667403663              1.5942862816876446
H              3.6614904788832683              4.9163245179246715              2.8204118197517207
H              4.361473532799318              4.696960588812529              2.898064903906186
H              2.980692418685416              2.023255814561349              3.223849231465212
H              3.021747455409731              2.1965143586300653              3.9261600504628578
H              2.8547275125304203              4.008292323129922              0.6889394190419299
H              2.875053558963684              4.411947229963068              0.08466627507108439
