72

H              1.2767223261211116              0.9084243523850464              -0.6419233585352881
H              1.1644648238101407              1.2625716794339117              -0.003952280284167809
H              -1.4266808146123993              -0.7224821423113847              -2.351798282163694
H              -1.0843763226334109              -1.1758232526086678              -1.9982576614822751
H              3.881587259900063              1.7994038290953975              0.6247350332085957
H              3.9811812273574985              2.3203047575946876              1.0497972011708652
H              4.413499531247872              4.376399869030324              3.0437305310889937
H              3.7710733426378837              4.288173768808579              2.654749607519873
H              1.5499067233300508              2.5425640643187526              2.7044410349371435
H              1.6798349878530139              1.7863672442418834              2.6577638072897996
H              1.769665860670536              3.6263398836956817              0.2966007582906199
H              1.6079903293625535              3.9889625261483657              0.9514507901392014
H              1.5101933369747964              1.048100948867953              -0.5015365528632656
H              0.9311210309560246              1.2933952316589634              -0.2151386772717925
H              -1.4625104424575013              -0.868425504220376              -2.257756620756666
H              -1.1479284035678072              -1.3079785496619738              -1.778710788667136
H              4.406828491734107              1.6935569666937134              0.7276916377723659
H              4.48124229441761              2.3785409274019083              0.9047387117143385
H              4.382496158037104              4.4244827986609465              2.9010570737943997
H              3.8254377885368664              3.940933521330449              2.7292783922332116
H              1.4565740362442194              2.4312849754609354              2.7419544783085334
H              1.3865538877942825              1.7741654904377038              2.767182725762468
H              2.150744311690592              3.933877815920996              0.4588134183670771
H              1.5461065973734827              4.070711952130581              0.8003247573460758
H              1.5028558962538656              1.2668220235782708              -0.5066723337948166
H              1.0147419099432644              1.2198847195320364              -0.046700855370711974
H              -1.5910476104162596              -0.9484095631387081              -2.3337900171000423
H              -1.3596563224767713              -1.202027451941947              -1.688995730809731
H              3.8799901048319514              1.6535890814677725              0.6761986962887303
H              4.337494659971266              2.0847783521846095              0.931820237051504
H              4.041292465238829              4.189043866435341              3.198942451379389
H              3.8242874067549892              3.872045613582567              2.6066821908896407
H              1.3764734817856181              2.468664955890331              2.738109841247971
H              1.5782354405851156              1.8198202315543663              2.813876943640244
H              1.9195831351707635              3.814327810721623              0.3201686612200239
H              1.4172607731685143              3.940948744463418              0.8629594470764153
H              1.556144465326108              1.2854315804995076              -0.31862771736752926
H              1.0314260585873276              1.168191103610788              0.21452973999889963
H              -1.6212616270594538              -1.0990388724885023              -2.2400338971012723
H              -1.5527264210598823              -1.171127364255736              -1.5994145254746117
H              3.6006637625155484              1.6392331493252499              0.9795048075048973
H              4.252126284765019              2.0684858725996973              0.9172077920531868
H              3.8975556560021305              4.480562206035607              2.9238245020935434
H              4.0268886714324745              3.9659934414544304              2.449029813756363
H              1.3581948272458797              2.2968026893062587              2.608694711674657
H              1.7162887109675502              1.737687972259612              2.8884676986501803
H              1.9645782274613348              3.8591740758109494              0.5864571174170073
H              1.3308100117473556              4.208307387681284              0.8467879016699932
H              1.534100010562946              0.6351821303588265              -0.2421280732393814
H              1.086740207226732              1.2176006655072273              -0.07908768456023069
H              -1.9417821247880607              -1.0197696793010562              -2.6338634487177273
H              -1.7230485065025665              -1.2762901325571048              -1.8540088667324137
H              3.8909647708974777              1.5659327746745497              0.9288330241570858
H              4.281822440244259              2.0889622997133968              1.1973026536833833
H              3.8132871500375427              4.779230789269958              2.8485250177238517
H              3.563622063325795              4.182920682016047              2.610025586163974
H              1.2291354811269204              2.4280601695383677              2.4743858939286176
H              1.6697844279492031              1.7903238147527343              2.7447840091835474
H              2.0024155220543833              3.7453128901520674              0.5229831765843466
H              1.3775221455241586              3.975849252525752              0.7256058976312971
H              0.955530668119711              0.9267767288193041              -0.5696541024603902
H              1.3145751428058159              1.0062120357300608              0.0996835332574634
H              -1.8412053279039116              -1.0707237226395878              -2.7544968107118804
H              -1.2988176878467546              -1.0994504071843787              -2.1853725740500516
H              3.9588474707202526              1.6372891138289913              0.8806765041959913
H              4.438466329394878              2.1582869462080536              0.8216720030228609
H              3.8468386135318235              4.696133412671943              3.0705558956214047
H              3.772203246900674              4.437760581356241              2.3947893136894307
H              1.2717306213729043              1.9490013172013791              2.3150207344292397
H              1.7295999550590369              2.367268686924325              2.7453179889912542
H              1.6382189167690044              3.766317054210714              0.27398164047812507
H              1.57556019253828              4.176839366942087              0.8997466205397371
