72

H              2.671009361085048              1.8149102733931954              0.7960839477798028
H              1.912030805803302              1.8012374933943183              0.7196994495973186
H              -1.56803921509716              -1.4896177611796835              -2.2282794757278834
H              -1.1561711349659787              -1.5252241271378504              -2.71214003042005
H              5.084272551892638              2.1172508817845994              1.1499141587633646
H              4.876696446033512              2.420921746168245              0.4465939062592054
H              4.098091359374118              4.710860877896109              3.152628636181337
H              4.607119033086416              4.18901375854121              3.003771083112737
H              3.5317232446693767              1.4399718489326119              3.488220997906172
H              3.112574815665846              1.9906360384178483              3.387352171863651
H              3.1047888627981157              4.164127509479585              1.0168314087033303
H              2.5737940190141315              4.231121212796966              0.5127855664083382
H              2.6277210302982565              1.8058336876375543              0.6140283835978683
H              2.06116587871508              1.9812103206324911              1.0168521884672945
H              -1.4284869258690724              -1.464487327292963              -1.9383648675936163
H              -1.0420248581545926              -1.6140540611465553              -2.667395467271196
H              4.80510871312535              2.3102488549533264              1.1569490954580741
H              4.8779632492338              2.4635430144562296              0.42411993214513966
H              4.605266377690258              4.5096955913161905              3.2316423951190996
H              4.72892647337203              3.8502616778221466              3.0309469177577473
H              3.563139097877092              1.501366225144396              3.262275712097257
H              3.168008678793682              2.147955461946316              3.23113635587014
H              3.1829198443067255              4.330052011118997              0.8752657753274694
H              2.528245588865945              4.512710190318601              0.6517338087074537
H              2.251823596901482              1.8077894599571058              0.6389831733054823
H              1.8701054737928238              2.2613231111265573              1.1352533659513684
H              -1.7036588825351497              -1.5546745098633648              -1.645749080235032
H              -1.4825231735140496              -1.304813001542218              -2.4283819273824543
H              4.802115191459146              2.5006728482755576              1.096076252667514
H              4.591246322354128              2.267549878303977              0.37659984663500196
H              4.615198764916469              4.525441666598976              2.8829943289698607
H              4.868517955213464              3.885714411427393              3.166623576982192
H              3.3662022720572478              1.5591593765166372              3.598962466243268
H              3.057048732279065              2.266374374313755              3.2650469973109075
H              2.8772321812003905              4.624058785740224              1.0825603760936797
H              3.0685033558175165              4.5431742292522515              0.3537625882251446
H              2.518791797370261              1.8929878936099518              0.6241983305828555
H              1.7941286674316175              1.7195349464784526              0.8325549307299966
H              -1.9402247579117056              -1.3790333813103306              -1.8021698843021265
H              -1.6500649341944378              -1.3913932150540387              -2.4661401871678623
H              5.188412112939787              2.2416423343553347              1.206110027948536
H              4.638285169799331              2.4522182443047154              0.6694051105056115
H              4.650257586809383              4.595141155374621              2.752210162025184
H              4.688174978813863              3.9305840831535908              3.0593802941068793
H              3.440403155586105              1.9108703215408989              3.4427418513317902
H              2.8011316132454858              2.064489818047006              3.903599586391525
H              2.816805305669155              4.575685306948865              0.9030727972701141
H              3.0051366084617004              4.453493689113498              0.17684044061081247
H              2.3428727500167374              1.6949166290762645              0.5008396575324296
H              1.8920205464119728              1.56935979910515              1.0365645288093
H              -1.7139715987690285              -1.066248692793404              -1.8747443822657885
H              -1.4074606753967063              -1.4121919122077762              -2.543401232405323
H              5.102505248578949              2.60557076661295              1.3291279887243297
H              4.818269617145463              2.5592459504125697              0.6115070565489753
H              4.5466712581389475              4.77713501850005              3.0114349262717606
H              4.77470555457896              4.171897539282182              2.786818563616349
H              3.6095490862987214              2.0471345400711427              3.6011442256490858
H              2.806238875540829              2.1415312773696256              3.478272276708694
H              2.850347175333373              4.29148674437638              0.9725230946165003
H              2.5814913677080225              4.479554990057469              0.3512947922329294
H              2.3950637911391426              1.3442259614793404              1.126129620866524
H              2.0367204115102084              1.7297896445601426              0.6337755980699846
H              -1.5809062237994562              -1.3039035893044721              -1.9912896014939052
H              -1.1452790524395176              -1.5243090164337316              -2.4759102235919705
H              4.978825035779548              2.661793093596925              0.845505848036481
H              4.598988222316566              2.421849774448852              0.2343048888039928
H              4.211344323392961              4.841307458532583              3.1321784740183762
H              4.688150226659168              4.170423845907147              3.135307581394651
H              3.585735056538861              1.8287368109007038              3.4783220919255933
H              3.0126756976768063              2.3551706490986444              3.5535434264836763
H              2.9355487101130677              4.433067312525944              0.9510330693665757
H              2.699832717079088              4.577561199862138              0.3159593735560585
