72

H              0.68330381744976              0.8650433145597436              -0.325128358000745
H              1.3265095463946452              1.0151117500863454              -0.614205642931774
H              -0.9672760970623966              -2.5047898652806793              -2.1027871564851695
H              -1.6711299555999672              -2.7299508351681556              -2.184861588094502
H              3.5076202201751996              1.1207361988563496              1.4606162574583883
H              4.1181119617199915              1.3800551914625274              1.1511587514155344
H              3.6787150536452833              3.8013568693321615              3.1487801163620857
H              4.285016663685373              4.018149376513628              2.8480731732050373
H              1.9246299270324618              2.301896908811193              2.4848624962877186
H              1.1630482122716534              2.131313587103049              2.5649022442904132
H              2.765021170222307              3.490327826686674              0.08843538665818608
H              2.0793324989380553              3.7670527599471026              0.2769189698674373
H              0.7510014989407171              0.9327053763998059              -0.4103344052886295
H              1.4720603868986903              0.7999466974398683              -0.5190172681445543
H              -1.2189882054182235              -2.569398897641934              -2.269506650223476
H              -1.975936687449569              -3.0058351078568393              -2.1880082331509487
H              3.860412780482499              0.9553623261527154              1.5250020830253517
H              4.587586641357095              1.3161239968553924              1.312228851525071
H              3.67512376658514              3.936849882032138              3.179627984498692
H              4.340726463368642              4.1108352127346315              3.0225375692034895
H              1.5995744105488636              1.8850381632623805              2.3462655432517088
H              1.2023752480107803              2.5028809215757177              2.4618691245805984
H              2.6211130065448285              4.057164476938555              0.07838189833298884
H              2.0683667216479926              3.790832775108874              0.4158897805236892
H              1.4227249126429176              0.73619755760262              -0.8488227395265079
H              1.3075611777124072              1.0679746239705756              -0.23483884933641835
H              -1.223991324138684              -2.3282078517153497              -2.2829966308154086
H              -1.77767899732713              -2.7864031267462708              -1.9933416225506277
H              4.026792757341704              0.8396342664860024              1.3395096320888014
H              4.477442616637129              1.3205969522315082              1.0269369326181284
H              3.819685038987089              3.700017096652202              3.258396399797852
H              4.2035799720644205              4.213959717206599              3.0353871940680235
H              1.4874904540122442              2.1063459103260147              2.739926999847023
H              1.1348768465277588              2.593318566394541              2.241755894771658
H              2.383258003228707              4.287685183423407              0.11458115633834755
H              2.0049033705035306              3.667272361074674              0.15879128897288153
H              1.7659666343899807              0.778136902702911              -0.7257168795415145
H              1.4755501939076734              0.9504376421423112              -0.08876972326032759
H              -1.1206433757269327              -2.2688435452190614              -1.9323244120042933
H              -1.7767902132916928              -2.488956586688527              -2.0455900684399966
H              3.8986391265382685              1.2140509451294892              1.4489166710878658
H              4.40094809755677              1.3648545058585786              0.9251241285275821
H              4.021283891964968              3.741238334308238              3.1880016434024885
H              4.5574841870627685              4.163773783810341              2.9443920394692813
H              1.6182996570363768              2.145418879161843              2.8484968294466504
H              1.347729490096724              2.408308219247379              2.1826758137362283
H              2.8185016426510106              3.8935286075485487              0.2785034173694011
H              2.112657622792312              3.86588927359978              -0.05300345196094909
H              1.1651982815116155              0.6506861994074998              -0.7926847472296583
H              1.462354580093444              0.8615093713529711              -0.09493544141175227
H              -1.0468869444123519              -2.503192293898243              -2.0182880411662976
H              -1.7773591770232062              -2.4006850075293493              -2.1537230162191956
H              4.1844357040495614              1.0439163121387165              1.362556968789056
H              4.538267462717823              1.6416083842096343              1.2654059181501964
H              3.786642809379528              3.5185649981456577              3.2701302719645113
H              4.121594036068213              4.145098656546764              2.989556306800008
H              1.2541811851104865              2.1030856414631023              2.8430249389119937
H              1.217965144777853              2.319170425705855              2.141327763499189
H              2.8916312524860968              3.820752152453373              -0.34581837578761054
H              2.39398838980462              3.596865762084069              0.16530203518231068
H              0.9700776171356751              0.5757438948639195              -0.5420684162312446
H              1.6412422379354221              0.894720605722032              -0.45529594039451743
H              -0.8748081618929152              -2.5661912760520136              -2.3160506429142598
H              -1.5646256111360637              -2.6310128746648984              -2.215395944810098
H              3.831056809328333              1.272231077055747              1.6048306109398365
H              4.43103580099824              1.2273092461008595              1.0947819601008764
H              3.6532259417893247              3.5242806561909394              3.016931483139146
H              4.032191133313487              4.146737945347744              3.008012557685475
H              1.8431623301213502              2.252660164652338              2.618690366009815
H              1.4369595416751557              2.4094314876750924              2.021940186880391
H              2.793661998690089              3.5764400539108823              -0.21712164757100394
H              2.307757420460466              3.6931571362619926              0.37043290368431325
