72

H              1.1661160579090835              0.5431076357751726              -0.5366126528124682
H              1.514309496823902              0.8756297733854721              0.08198217215740519
H              -1.1412998358465052              -2.6946852442662093              -2.0630653549680895
H              -1.758747846897801              -2.94773278300467              -2.093495960811238
H              3.9341499595244116              1.0562212797533528              1.5280464803637859
H              4.6779518532143              1.246893574248789              1.5468147684618248
H              3.7144310799199474              3.5065982122218387              3.238906926661222
H              4.202408389198237              4.052914206709673              3.0395769014107024
H              1.3907747082932365              1.891520114176974              2.1909245822847954
H              0.8781223568808932              2.4247449926037943              2.4241309580628014
H              2.657013301624655              3.88952237053019              0.0038317190566740135
H              2.087035538234746              3.6582182784016264              0.3788448259249308
H              0.9553934670484621              0.9399670973280975              -0.5769114361494468
H              1.4278537496164139              0.6492289943488602              -0.056097410488977144
H              -1.3932732980192268              -2.3105560549302058              -2.203888414924057
H              -1.7769103338178283              -3.046130513116764              -2.319712186684001
H              3.759183409469903              1.120709116374387              1.5092693212759314
H              4.441735328227161              1.2411180897097807              1.1726962854315675
H              3.6385387514465215              3.7907131658473374              3.199351644873405
H              4.151579941856921              4.306798497458508              2.9394507042405578
H              1.7609281703864452              2.013912702588127              2.6244146633023204
H              1.1080649061743841              2.56099694920287              2.416392512093184
H              2.6195494640270995              3.5611291105969483              -0.013175266130050453
H              1.9070238367521353              3.579196080441436              0.00973176978119965
H              1.0465471931394794              0.3578106453615936              -0.47973288647722795
H              1.1463803671499986              1.0060011195165943              -0.21055274544285207
H              -1.1995245792140565              -2.4412271125133707              -2.3995820518666786
H              -1.9154096517834016              -2.8254562964523706              -2.37987810943532
H              4.025514358132189              1.3061551055908092              1.4646120730928434
H              4.558365538671448              1.485046504567768              0.9594063952326708
H              3.6138076773529995              3.9525264042417296              3.2088844742406653
H              4.226549968292626              4.175451847621377              2.891344245479114
H              1.779910218221314              2.2736764077108704              2.256424741312127
H              1.1891164893540072              2.4509687143811862              2.568744446754623
H              2.844069838649804              3.905951397213231              -0.11190970714967638
H              2.1964409051448306              3.7750528870350353              0.20694886856749542
H              1.1240387572630808              0.6741461642214136              -0.6748744670168019
H              1.0208227495832172              1.0524696205642172              -0.07108655704312954
H              -0.8680977862846843              -2.428132378118249              -2.261661170868478
H              -1.4812747189263162              -2.737668727443621              -2.3355643355304734
H              4.22384568955016              1.073221776536571              1.607013562724874
H              4.549026218449011              1.528208778639755              1.0364744263864993
H              3.944853455958416              3.439825483301024              3.316592717229408
H              4.021305645155774              4.123529131167768              3.0317603372584
H              1.3841212870797965              2.3612283310425797              2.832008105156293
H              1.1512506302122751              2.5105818582024844              2.1351034896938397
H              2.798354238873899              3.859112317068833              -0.14195508214697786
H              2.32419129697891              3.5501404027231596              0.34930645951289013
H              1.114901559719968              0.6698652240010361              -0.6185204155015961
H              1.405476479178492              1.1573485666801253              -0.12711105331447262
H              -0.6391409239221335              -2.577929439094731              -1.9375591399171157
H              -1.4186938840726178              -2.4696526669348318              -2.0844626052331434
H              4.001020492788881              1.3179444604203703              1.6243185075410222
H              4.195399338240558              1.5351896322871772              0.942447789570429
H              4.128985250511163              3.719437321008431              3.3741099635322622
H              4.453614410176433              3.819129881500585              2.6171099795050785
H              1.8024772209178637              2.364875088996722              2.6277936773067805
H              1.3074488771824453              2.3282039050585084              2.0706302258786864
H              3.035790605755542              3.8519940335762537              0.26215594784593277
H              2.3337942120203894              3.6079109315880857              0.37454634594736086
H              0.9990433236988592              0.7635733150260035              -0.5168969202246884
H              1.1604884134758304              1.317273530366139              -0.10597457563601483
H              -1.037960882543094              -2.670831081164024              -1.8362424341104824
H              -1.7533805313550712              -2.5617261744864974              -2.121519971456202
H              3.5962460342414726              1.3441403235397775              1.4176132221658957
H              4.295203981823743              1.3394075497968891              1.1994010362128962
H              3.9842368169693776              3.5843971575549443              3.426104378354217
H              4.459962295051014              3.798021704457417              2.91979827473784
H              1.5028230890742138              1.9402597868896632              2.5554432610949487
H              0.979164606108565              2.266682150188943              2.2172458510934048
H              3.0074361413232173              3.7000203416041355              0.07137562724976347
H              2.319669373064202              3.6335993872548813              0.38704522307650585
