72

H              0.8254854122650227              0.9843042458334247              -0.41829627021292703
H              1.5588286823928452              0.740907755945552              -0.5880820497662254
H              -1.229714274558672              -1.8889509036780217              -2.406607850061889
H              -1.4920837619269687              -2.2567657060148902              -1.8877410866178672
H              3.518989105262162              1.241150393631285              1.1850709708893175
H              4.117228371315831              1.5515246631416841              1.0494338523710127
H              3.9072074424675938              4.203236312537101              2.387077324936522
H              3.885974885524154              4.042906702206747              3.097402562734318
H              1.4744173778999885              2.1698684973230167              2.9104104001268016
H              1.9825337285366607              2.1387176983152365              2.4040758591547844
H              2.5136465384921145              4.000515923843033              0.298863011063158
H              1.8834101268282128              4.153184120747576              0.7109115362170892
H              0.8552587437321473              0.7013282235784041              -0.7125457042809588
H              1.3259278732332223              1.07981649313322              -0.2729808412953704
H              -1.5051557498708803              -1.7927098084191446              -2.2483955722782554
H              -1.7029616189541              -2.3389216103038235              -1.8151884312442155
H              3.747633786782852              1.0729025994052592              1.0288920438471265
H              3.982378169180636              1.7293202911854413              1.1878299789262026
H              3.696039143057113              4.132449850802194              2.465616275687583
H              4.149544403110432              4.260433890341109              3.016044548678738
H              1.5319072572404835              2.1223190216778347              3.062944453546241
H              1.5935750864994942              1.9149831470547418              2.3398374839069067
H              2.511245595933553              4.236246714853105              0.657400232355494
H              1.8495237586049789              4.062810900941023              0.5314122067534127
H              0.8401469008286822              0.954472280733345              -0.3173316269233047
H              1.5735176791033547              0.7464994228612123              -0.36773632399244377
H              -1.6376706219652806              -1.83759961627631              -2.3698499784234532
H              -1.9126898280253206              -2.1107876722855416              -1.7382351196535988
H              3.5165500086641064              1.1605139903797266              1.1240846049629716
H              4.06701501395424              1.5486535447399732              0.9246351381948117
H              3.889923257184963              4.275087586388769              2.489012003093145
H              4.0564568719852              3.9409313168891567              3.0682634980165764
H              1.5943167718435445              1.8865294112565512              2.7001501035857163
H              1.9156719148326453              2.341261780152112              2.088924161104712
H              2.428454828724148              4.357463837094334              0.4895588334834198
H              1.7695686582554186              4.250836186690095              0.805842046954735
H              0.7045001388223213              1.182889133398105              -0.15454833530263562
H              1.4049529930508846              1.0604744746390538              -0.3821095493807581
H              -1.3417201526379425              -1.745099575034114              -2.0865487962755624
H              -1.8703573711487775              -1.8798852163331154              -1.6091779604495808
H              3.6312809302264655              1.0416563038751843              0.9307241360651606
H              3.9305282576685006              1.7216902162660384              1.2893308508723202
H              4.048212041891227              4.0302175434583765              2.4672541585757397
H              3.9873726537498495              3.9926370681676677              3.1896610327684347
H              1.2847963715923671              2.04029972344796              2.8138724547354763
H              1.7505618486242456              2.11976222856116              2.2968631829178676
H              2.3677986202829455              4.197309204417884              0.2528533981798727
H              1.7223564483269878              3.9098466871941535              0.5844901449445618
H              0.8492899553055869              0.9297809369184206              -0.514432465719566
H              1.5013421887178058              0.963285956081338              -0.21587621534843612
H              -1.3428533289571243              -1.9110573571969336              -2.353435811159274
H              -1.9265335540777273              -1.8907990055515773              -1.7802656273303907
H              3.982083218376462              1.095919851410514              1.0894039609510406
H              4.354863783324796              1.699748732780816              1.0931613945593595
H              3.8414156990818262              4.238407731950123              2.4167070158749975
H              3.9164483082997514              4.220282956714453              3.1050397267026524
H              1.3249720036357688              2.0654271263873185              2.7871756199166158
H              1.9928204153724693              2.0536127207989243              2.4022091694488066
H              2.6438462458449377              3.9804885249615367              0.17206074931504303
H              1.9269034004280576              3.9773612088820003              0.1599976630164085
H              0.8187770296811894              0.7113644636389339              -0.3217512431091839
H              1.193599782191807              1.1522103958613488              -0.7379098901468919
H              -1.3437303467999313              -2.0430690207226063              -2.639317571443611
H              -1.6828473386935083              -1.8161534596933249              -1.8815085276060408
H              3.7272089570650664              1.0038245171811981              0.8513061559151077
H              4.256777340332397              1.6628681490765034              0.8231525210116641
H              3.6167082389334233              4.178238932480151              2.459648239878073
H              3.6183390169026235              4.102467464740706              3.17502294335908
H              1.638809857469799              2.0439125788202532              3.0241599198397875
H              1.6439228814893636              2.3058979955590586              2.28326020646236
H              2.4555442922439337              3.976178833419365              -0.21513395373247834
H              2.0565340626513224              4.022285259200978              0.42427571842885453
