72

H              2.25792115154678              1.2804516544166384              0.9807456901800429
H              2.0334082222786325              1.9424398518963886              0.992745469500987
H              0.7251728618658233              -1.0735209765176355              -1.7266927706136712
H              0.21746023615890875              -0.45265149542090627              -1.7707484292928464
H              4.660833522474547              2.3182288908638977              1.1643099428793766
H              5.053856678211806              1.8687184452893049              1.5249881912600065
H              3.7566313248242205              4.705000658791895              3.1706251364864286
H              4.518654155887095              4.71569279297543              3.097810361645196
H              3.0472277530618843              1.5794457194212128              3.17325900952415
H              2.887524150114162              1.8635325755022414              3.8673263976465537
H              2.9620702406274937              4.094158329503693              0.7529128775436628
H              2.9832428320253017              4.301000144567018              0.016965267172945504
H              2.747948590343008              1.5401661543633074              1.0352183588167323
H              1.9514238294849946              1.4433505302486271              0.9005436027313893
H              0.9038128165101795              -0.7070202065140301              -1.8425589153422277
H              0.22998350281028002              -0.5826828161939165              -1.7036140294133153
H              4.9228001631790415              2.4003428370274316              0.8632841296408231
H              4.917968929595348              1.9420038168865614              1.5319703366978867
H              3.8072631740755245              4.66734430237828              3.042696361287757
H              4.456548445488172              4.97026210834044              2.92702930887855
H              3.1760723975931784              2.077497951791563              2.891268931538966
H              2.9179447178088624              2.1514127292800382              3.5841542987104487
H              2.589724149293304              4.005526559616276              0.5933296571706499
H              2.8996486169725713              4.460243070424378              0.12794841273883548
H              2.4142129981504787              1.8472115910651306              1.0553325705647456
H              2.0361567622899313              1.7293444938266056              0.4815786498710113
H              0.7778178996973729              -0.9328044095353669              -2.090564250635539
H              0.4076298303333772              -0.3105954620184802              -1.8129297679164122
H              4.866137074489383              2.604286122535093              0.9544034403931125
H              4.948962495744081              1.8281607805150402              1.0734117166189794
H              3.6013766124092053              4.836096770740007              2.9148184543792937
H              4.328010504983548              4.797480688503198              2.8739698604791544
H              3.333390919980417              1.7608197797725478              3.020963478537447
H              3.1641499518914378              1.996148197155652              3.732529699284186
H              2.569278611451569              3.9038409573853916              0.6345172391906923
H              2.6740706044795726              4.5071582487178565              0.21264262174072204
H              2.6407745780660736              1.5161947388545092              0.6102425273450367
H              1.9675351310779285              1.7288301914643194              0.7038678379717105
H              1.0485324240473852              -1.019849448495591              -2.212858894180019
H              0.8144613541338933              -0.3051149954992109              -1.8634296279737765
H              4.762534222068844              2.557397945145613              1.0878353380036316
H              4.657202169346383              1.904572898654235              1.5733601066818503
H              3.7178977375198285              4.766149664848005              2.9563179736926593
H              4.334586629313269              4.405151992459001              2.9831458959927195
H              3.226923414365331              1.2529546730531786              3.6254803085404386
H              3.0608745165587403              1.9967401107170677              3.548929366830215
H              2.92832826277707              3.7921185693852317              0.5345388481689987
H              2.5462496038107703              4.229454765063785              0.002039736735466406
H              2.306912064472532              1.7891620892786348              1.1697104799263773
H              1.759450040918532              1.5526037413902367              0.7746185255782995
H              1.0078490037289642              -0.9251681712462106              -1.7089403194632125
H              0.9318377420126465              -0.22488148263790023              -1.8243732150355694
H              5.028575455887121              2.6805580054012372              1.2647854172907667
H              4.825318312300476              1.9773819579578367              1.3300957810503353
H              4.093613748778117              4.59278080290185              3.1619892150149393
H              4.7322072965852735              4.517602922458542              2.779970456457844
H              3.347788070739009              1.2934121292040004              3.470164779371728
H              3.1203065086246684              2.0004222791383386              3.7117802140747
H              2.9711711829460854              3.789310190396916              0.6558503161148848
H              2.7922240997796535              4.488735460943117              0.36265844408763487
H              2.222841075868797              1.3570689168213743              1.173730450692463
H              1.7887617535873377              1.8594867233225032              0.8657125018851245
H              0.731616256799052              -0.9718528387499594              -1.5124087305373033
H              0.5366629081990025              -0.2660401514962831              -1.5843434272825307
H              4.660175790815296              2.5624029034026097              0.9146110992418178
H              4.723194578358962              1.856263042044467              1.0555063744611755
H              3.9551669318421108              4.397700876363281              3.38913081822313
H              4.543269019227668              4.5800085818307155              3.025968616757043
H              3.607111118425154              1.7522164309070194              3.6235195603989654
H              2.770481210747949              1.8545849675515695              3.5388898306410197
H              2.995412865770403              3.8463486128726823              0.6646811739486966
H              2.9423112390867048              4.377224899230164              0.10237280568516688
