72

H              2.4549971374150066              1.596277709218802              1.1481962068911773
H              1.7089887047426404              1.6188795532735154              0.8822744393930781
H              0.6568924940824329              -0.7000065789669131              -1.6558589330102311
H              0.4442139158403923              0.03879915682343797              -1.7661933107984065
H              4.92861894675214              2.4796724593462383              1.028220909525185
H              4.8008083720605              1.7842856416424724              1.117255016468131
H              3.864670723411066              4.4092340114694935              3.2421833739331656
H              4.459502913476517              4.613791290866753              2.7527593828996775
H              3.7016567624602223              1.620452088994546              3.118243330299576
H              3.095088676686062              1.8947441674348655              3.4495735018186995
H              2.457851285329888              3.9364968512308303              0.36817107881561145
H              2.7745711113878886              4.584813195634448              0.34570538314143306
H              2.207230620766688              1.563405675450185              1.0242648893957156
H              1.694304106108916              2.0211892839301346              0.6571822301041149
H              0.798217902889894              -0.7579103442753882              -1.868947818580787
H              0.6825921382390554              -0.07818008602829234              -1.7657242821956582
H              4.848862665528882              2.425979735822707              1.0954053090293028
H              4.87297080341519              1.6872475801413453              1.2117790967737239
H              3.6903797812794608              4.850597492927042              3.176733264828718
H              4.360568793715274              4.557631826033542              2.844214912074024
H              3.558266125771265              1.2124874710079199              3.309892749373475
H              3.0776340611654254              1.62262514630805              3.598760448838466
H              2.778449504030153              4.118660824971208              0.6168358278051577
H              2.9269302072674526              4.581121236672056              0.12400992437704031
H              2.322008051521666              1.499082183026075              0.8950603111575712
H              1.5517438671810546              1.5191340775700533              0.7745606214796834
H              1.1760814824594237              -0.8021299691390116              -1.883759401788704
H              0.7175612787860898              -0.20905762027493038              -1.7325008153653092
H              5.259848014375168              2.4497559301977376              1.3342710479714055
H              4.832102260490574              1.860582327914128              1.6444272754997973
H              4.04796832074182              5.107454414567312              3.2079113789289035
H              4.381043761950799              4.549398619926397              2.9138262272038555
H              3.3456178190915282              1.3474082536298135              3.4033598212280687
H              2.975713718605689              1.9677802480963744              3.401244783093357
H              3.119597818974373              4.010852215934083              0.4910338928591424
H              2.934893902703169              4.634376136931791              0.213308973275077
H              2.3093843594392287              1.616830154051932              1.1020208614615372
H              1.8054588369691076              1.6769744330939267              0.6473490682053501
H              0.9464056175016754              -0.9943233382650412              -1.9005894162364159
H              0.4649519851143776              -0.3044764749595704              -1.8186243987226975
H              5.256046857274395              2.7264510566764737              1.0311793642555473
H              5.109991028282195              2.1078402706550077              1.4471513824692186
H              3.9339029268366983              4.94192984978889              2.959312673572008
H              4.659855040281269              4.712718729013794              2.939737467407956
H              3.427243166232992              1.5462353399009552              3.292307993424286
H              2.9586236127674947              2.0194401635761907              3.4404843546969435
H              3.2419170425586477              3.8942779364187436              0.4917014645846859
H              2.876659843238942              4.556665364493067              0.5079171045855114
H              2.531944998321205              1.2186146687709707              0.8757659371158516
H              1.9656111038104969              1.7615896476628095              0.6740575524485893
H              0.652753973980965              -1.0271212157004932              -1.9686329628654673
H              0.41468907310858594              -0.40449876085676517              -1.9633587936154082
H              4.956036818535214              2.6579184907474898              1.2322078052654934
H              5.007322365903318              1.9451930373060426              1.1098386474047308
H              3.7492928713427034              4.688833340373962              3.178025727331092
H              4.436795636622972              4.4426788052395825              3.009232693130474
H              2.9983309022229503              1.3085371831286141              3.460267492244897
H              3.0449569505455747              1.9955930847656336              3.536127809331293
H              3.0393188528666557              3.8769107094618454              0.7002227290926291
H              2.564927253953341              4.140750000514267              0.22516231570798945
H              2.606599840818286              1.450255297817502              0.9715290160244963
H              2.0279444736968797              1.8626257340922394              0.9983098954672656
H              0.8081437731395302              -0.951499596241545              -1.7718600284255757
H              0.4670436252240489              -0.329513287554596              -1.9477890114259144
H              4.9832802084135075              2.551500896580185              1.260289086234649
H              5.112701073574979              1.9023024109772217              1.3671265164918387
H              4.0040968989107935              4.294766767722337              3.1685225651644413
H              4.547347991050348              4.607232468701576              2.7037864859668295
H              3.1477870569284208              1.355849509947612              3.3477146961593935
H              2.9917881251564733              2.0232149199287583              3.604956961073981
H              2.663708483511588              4.070737605421213              0.8827388914804731
H              2.6876122040208075              4.285882647161226              0.1653024276995351
