72

H              1.4696941495833202              1.5911270729843292              0.17697700115798157
H              1.4693825343102282              1.132354790172073              0.7886388301198716
H              -1.431914200304172              0.019136045432488223              -2.0450959121413352
H              -0.7867844718683691              0.013914730190049351              -2.026684833143494
H              4.339351890951424              1.6780837361530312              0.43193524617122564
H              4.3022115520482265              2.472865836958792              0.38499789018201075
H              3.5531727909766064              4.007224005044548              2.589595276757565
H              4.030335893791362              4.520073731283851              2.86439938335215
H              2.0705701386169957              1.79115111517589              2.7040087969328317
H              2.6131974906655935              1.5588386179020743              3.228007233507566
H              2.2164265388654107              4.027503381769857              0.366635308256525
H              2.015911478099936              4.487177291034994              0.9305932832687792
H              1.4969698493416546              1.7396543795495887              0.3325839691005294
H              1.1339428976427528              1.1958403856314537              0.6060100250148894
H              -1.4228710217993081              -0.13836243101870216              -2.3547287262616576
H              -0.654158637459185              -0.11397119437350904              -2.172044807261524
H              4.124781239417483              1.8425060455660782              0.8215553467926285
H              4.672625636333741              2.2837907873487215              0.5288672664715591
H              3.412462071011348              4.051089373230724              2.8932128691691843
H              3.928633190515038              4.556663057909981              2.9796340312725915
H              2.215526842406625              2.0535418907945697              2.449751574449841
H              2.5293060342914253              1.5834103738818492              2.952330099759853
H              2.4200807123836614              4.222750724326362              0.16247877117724077
H              2.081845692770761              4.353153731613844              0.8065234232853683
H              1.712241338895501              1.6422463614440515              0.07108690521106711
H              1.2015415414260577              1.2808015562034563              0.5842850954493746
H              -1.0964431501511656              -0.32203205081316166              -2.3063839027834656
H              -0.3551068968653144              -0.010075771988624893              -2.309620744625599
H              4.361797855512613              1.7512398632929032              0.8438895334657655
H              4.570084468089704              2.518154123216821              0.6512593184345681
H              3.530289204551191              4.03166173048681              2.8228379365526264
H              3.8208591457324106              4.777770539494765              2.917892246254468
H              2.0303048884485198              1.8543287326831672              2.5172976810025633
H              2.4845858822213622              1.8916134013366286              3.146533842158495
H              2.4743107063295375              3.9365039029145565              0.17879874616112293
H              2.0920095426442784              3.900557830875254              0.8454995695442171
H              1.456076136423988              1.976787230104808              0.16234100462189177
H              1.317925003430192              1.1963521295487438              0.38774242894231015
H              -1.2033676632981471              -0.22867331247106482              -2.378577471260868
H              -0.5569988892418938              -0.28738556116614394              -2.2495648096827012
H              4.662721062504985              1.7691194932414802              0.6192038169459352
H              4.666819226120666              2.481165899944006              0.3808291730650259
H              3.5646697711797195              4.300861672089218              2.8687709321798254
H              4.086644135194137              4.747646827197825              2.6612628386996247
H              2.5124486092930236              1.5999330422997609              2.6367388090571837
H              2.309726521654231              2.169298306016704              3.18590723825914
H              2.574166412601484              4.047788983858035              0.5559155779933992
H              1.8707025858698234              4.2633207432091815              0.6789416677890048
H              1.5746065680388068              1.909310434304434              0.125609385783227
H              1.356188615253817              1.2034384366858277              0.2398064960739538
H              -1.4229499361503308              -0.19157110715148562              -2.2526460418005803
H              -0.7038795895802157              -0.45821929173295894              -2.265090406863096
H              4.157822932682735              1.8079593610178633              0.5038356660380107
H              4.566736155044194              2.3730156774910194              0.7821631980578909
H              3.517544334889896              4.018544214042724              3.0758552720815495
H              3.988266247382051              4.521570673161721              2.779021089353384
H              2.1017350804529746              1.6590751323252282              2.6671302427661465
H              2.3739245798188597              2.0909990794863704              3.162627224105827
H              2.296726338443291              4.293337451230779              0.4782233541067994
H              1.8206258907129964              3.8604140693254396              0.791788356795152
H              1.4023355907767487              1.619825156398413              0.08122475654495635
H              1.5902103385686148              1.1803809618702505              0.6533551573254638
H              -1.4022942538260628              -0.16994349190725938              -1.9664804478899711
H              -0.6877619189263319              -0.29159359531768775              -2.3472620178207104
H              4.409815250229313              1.7093125216471539              0.7722172340696758
H              4.5428028017943864              2.431363197854496              0.7468553256238692
H              3.76030790172584              4.028180349715332              2.454453967936361
H              4.084153163715494              4.471377631470355              2.94144985280116
H              1.9639617832482372              1.2961331973170906              2.951552918677053
H              2.4421282649345644              1.8694989571777554              3.1075334782721824
H              2.1314774961522294              4.148370204055431              0.4655172653144998
H              1.9383003591300945              4.32936518892475              1.1673572422840541
