72

H              2.2370602429397892              1.5799589523268625              0.8875516599849901
H              1.681587295960122              1.806142941959891              1.324308485910142
H              -0.07866601923371463              -1.1109225333026753              -1.81393922021348
H              -0.8232526290808463              -1.1188927261830337              -1.6799777380832748
H              4.809891473607358              1.9413374056620714              1.099742482158918
H              5.065595914933995              2.612530244214192              0.9580329957527007
H              4.24134638698983              4.914916066780916              2.608492585232882
H              4.229638397935481              4.688040405234657              3.3383376382964567
H              2.2517947111051653              2.1427722666792786              3.827449808550868
H              2.867137252382512              2.145233151811888              3.328397885896626
H              2.9450541912138              4.329980258822197              0.3715688784859375
H              2.9162220229157008              3.6100817885402545              0.6130145129036091
H              2.277310086281997              1.990036169766599              1.2725005506530187
H              1.8073828967650645              1.9937876295088288              0.7478874107260415
H              -0.10469148195277486              -0.9995931165187067              -1.7758699526028359
H              -0.8225204926344187              -1.100505751706311              -1.7687515869025707
H              4.585877205354456              2.1253759146056526              1.2621621861715673
H              4.939450340030163              2.751163634601657              1.2055735731947108
H              4.173340889792513              4.988842899445718              2.3721797781174874
H              4.313470202735462              4.810566587331629              3.063812161351452
H              2.5149316216495023              2.369837258452333              3.8323143788724696
H              3.074621644394737              2.331137438604379              3.340434773147727
H              2.909807758682019              4.375053714172226              0.421167351445757
H              3.027432141276849              3.6912537753717167              0.693953949311012
H              2.444604198370564              1.5123021281456246              1.0856169254584602
H              1.8578352928935091              1.7760491163662844              0.7239982310021872
H              -0.03955346821245154              -0.8852492981313165              -2.091506946264835
H              -0.7052700371667338              -1.3658175136814048              -1.8818635851720875
H              4.595324565547362              2.0231831693626114              1.1140877456700504
H              4.911053391311501              2.7581187087496732              1.2892813548657218
H              3.79986343102044              5.077049250169267              2.4462343896144896
H              4.204613612196273              4.657589859728178              2.9242605929104033
H              2.7854450013085392              2.3878867203405347              3.5553145247012106
H              3.0556789136568705              1.8771862007558173              3.177387780767788
H              2.8606039506156855              4.293593077836393              0.15992087937111973
H              2.72538703621946              3.6928350570803135              0.583466548739773
H              2.3059376716922406              1.5662828718124409              1.039382978723303
H              1.973653842478355              2.1882929277538974              0.7974789196254207
H              0.2838419979789563              -1.1858402772431416              -1.9461887015882569
H              -0.4112014845291665              -1.5982793995923597              -2.110165755411295
H              4.962556065534227              2.131599361640344              1.2948504187848324
H              5.2633864581974              2.7426837516414557              1.2657805413994285
H              3.952452575088274              4.857476940052482              2.541065969358367
H              4.300055112604292              4.454360893131383              3.014865831503093
H              2.5279066628608677              2.229706834459415              3.5785559954569934
H              2.991701785930053              1.8667877931725163              3.307343602275369
H              2.80037341340135              4.560071528216751              0.249025549336327
H              2.8076622111705745              3.7329523083051903              0.4171136965379571
H              2.156264553944256              1.3493422893694333              1.0659495056819301
H              1.9902810019342232              2.005499301890836              0.9448237354626566
H              -0.011448915224989727              -1.284578861444079              -1.66788072702021
H              -0.5601910420441825              -1.4613989936269862              -2.070599497508356
H              5.048589448354061              2.13113306774095              1.1715208417040508
H              5.030283209804622              2.8393392369466848              1.3731989822457915
H              4.354013030935446              4.611248129752895              2.5540460765369986
H              4.440951449464339              4.615729435440165              3.236838284787413
H              2.469995188429436              2.4176410935511625              3.5314258903580127
H              2.947559736731307              1.9213767607177925              3.7219011479802457
H              2.688393395568642              4.479041286199943              0.23656183242321419
H              2.874126955921453              3.795907606490757              0.20219706147785876
H              2.4273743301268165              1.5848325654621327              1.1005793623254383
H              1.6779295055017296              1.8337767178224273              1.2249384698787633
H              -0.26378263272330577              -1.3291918862527172              -1.8883951143538829
H              -0.9103420848721384              -1.1790294751121517              -1.8716519060362613
H              4.788243468935124              2.290562281288762              0.7981831514654034
H              5.12724794654288              2.5915395112403448              1.3422000934259095
H              4.422978897546618              4.865852252153631              2.5002888196521558
H              4.383779753021065              4.760739183967817              3.297989863893811
H              2.417436200861778              1.7361528658592489              3.8256902420845678
H              2.94416992512967              1.9392217097494555              3.4306581324603727
H              2.825419827159777              4.47290324947393              0.2653650630873231
H              2.8395295770606346              3.82512933080621              0.5716767627154223
