72

H              2.189660198456431              1.2818120111961593              1.2354434872040152
H              1.6266911477158934              1.4384147536511882              0.7520960933382654
H              0.21124379246495606              -1.1467052345983535              -1.8049663381276753
H              -0.43437152202382273              -0.9334829286739877              -1.5011645755706995
H              4.760887469990073              2.096970809397587              0.7421420090299127
H              4.748472581375643              2.535065780347617              1.328072115845373
H              4.079610794609137              4.545303763657939              2.5797863394449445
H              3.9803366286486663              4.930727541434163              3.2176731419524796
H              2.824910198591497              2.7553054859638673              3.825484340042498
H              2.536312708105525              2.0056136800712205              3.9730282214597565
H              2.8088807697361644              4.321658720993412              0.2930897480795631
H              3.4360831964971483              3.9179163257884064              0.4904960809059056
H              2.2503916512721394              1.3147445316917892              1.1868740757418694
H              1.7277215037642706              1.4110068419364592              0.7379460781923617
H              0.26993400627495046              -1.121550076666834              -2.1246552897593887
H              -0.24882903886748423              -0.8745073036820231              -1.6413738855136972
H              4.731174194224509              2.2885997192176393              0.6640147015195658
H              5.173708297583523              2.2799249753293327              1.2102408612107014
H              3.6239529285830034              4.778121014216499              2.422435171890961
H              3.9749807176482514              4.8807715086862675              3.0366711435848655
H              2.3018858929336927              2.3780008802754105              3.6258814440725637
H              2.980209639438312              2.324182444065788              3.879734732654759
H              2.642436093555079              4.382240762756034              0.6647943690210472
H              3.10843031781942              3.7942370883050094              0.5249690820069747
H              2.446153402963025              1.5365759216464987              0.70694432857677
H              1.8027710206398102              1.4003793570305112              0.9929741062518235
H              0.6155930387478055              -0.9947102591701983              -2.05347286930109
H              -0.09153246863587597              -1.0486251728908997              -1.714057160866908
H              4.691630058581755              2.1038104119791865              0.6308985746640206
H              5.046598025336786              2.4279004191397253              1.2196893583462183
H              3.4401372733349023              4.470816773596565              2.51033813834427
H              4.048786551643731              4.6751927499413855              2.9366027834401205
H              2.564597819726494              2.7885006562632255              3.5319834005348145
H              3.0315745865188104              2.466494182071908              3.9847875786651423
H              2.506702455641316              4.3619079800710185              0.544794130520581
H              2.9338002655502216              3.841071897327537              0.24577753423038262
H              2.2100724059527184              1.7502164367158817              0.9923469495650008
H              1.790121624550393              1.1758351441104706              0.8049244018567259
H              0.6224257217918215              -1.1446259596115314              -2.206674720267701
H              -0.09270922117324899              -0.7499463581679009              -1.855949147499128
H              4.749878448425182              2.352723386475412              0.7736636562898916
H              4.938087798071402              2.149807573131299              1.5164260452939835
H              3.5547778928952614              4.579580928210621              2.473145735898213
H              4.125052104687418              4.630377902126499              2.9075112681980926
H              2.922634402489902              2.4159268289754627              3.4295954076091837
H              3.2040968957373903              1.8838577740189235              4.081774238073804
H              2.478923043844436              4.313451236504265              0.5453761553308696
H              3.0119177941930966              4.124390516908261              0.04957541147478765
H              2.1647867394713285              1.1798242673143426              1.1679997520909458
H              1.5957348039636483              1.4927922739324615              0.9098944955310848
H              0.7346364355045859              -1.1784748689225062              -2.014314826644521
H              0.2899419121176556              -0.7645222139832265              -1.6352158468878164
H              4.870464984143709              2.1928357997691443              0.5857947846885777
H              4.954825364168901              2.1409873805633097              1.3324613157135705
H              3.640453620026342              4.367502313420876              2.826857797112259
H              4.30488327223968              4.54356598989611              3.02826656136184
H              3.006122476228382              2.154489577963467              3.3805545588670385
H              2.899655862276961              1.8513691955101583              4.046961193220951
H              2.921350400351674              4.633420182919983              0.4750705008497616
H              2.803762180724604              4.042531834990928              0.08899653870266709
H              1.9890073196625357              1.4649111502359933              1.1230037634587828
H              1.3262870255093204              1.8691330481178288              1.0122484472039688
H              0.5489029241853383              -1.264496335623212              -1.5533203894324317
H              0.011995502201589833              -0.7930369394490713              -1.5553288681499489
H              4.858692034851345              2.2161852090944514              0.7333403675271106
H              5.168497618591164              2.124049333495401              1.351142681278399
H              3.822516048293376              4.397680212695514              2.837688022691889
H              4.485205444543746              4.718509661522602              3.1274450894038552
H              2.6541954820771743              2.4804698057758827              3.6520499335408108
H              2.9069303806161715              1.935595494837127              4.163120473331752
H              2.9316594303103765              4.615410919309445              0.5786766410310862
H              3.2636082381487688              3.985365906600835              0.3855722349730331
