72

H              2.232462370903043              1.643124792174238              0.49955492694255943
H              1.8578269122975413              2.0904589218517877              0.9917217322228354
H              0.22369722337940165              -0.4309915423507892              -1.7162196796207898
H              0.09445836286150278              0.23110738304626977              -2.189496179417759
H              5.23921424268252              2.430057378373305              1.4794506928607214
H              4.769084203820065              1.9996701735269486              1.0285797266892067
H              4.07297385528259              4.4352986454681185              3.242577528717775
H              4.001808706862775              3.911663433336583              2.695074683716398
H              3.295624979663499              1.2305954085273338              3.344595231244571
H              3.2905517484607              1.9586637869723171              3.218799742207155
H              3.03423236225474              4.077942972883106              0.5900267977837746
H              2.713430615232208              4.722966641016403              0.3358822748002288
H              2.12466406355522              1.741827428719055              0.7012410177924882
H              1.382575197822593              1.7505529151544716              0.8929959943764205
H              0.4679190098147239              -0.269523566288578              -1.769669311477711
H              0.2541955310680949              0.38405805033711576              -2.0998923402456398
H              5.492287027975395              2.400438031590604              1.3516593939583863
H              4.930153601240424              2.1637209894513934              1.044886618633458
H              4.268711453693964              4.829401168919177              3.0538377391368456
H              4.019653851520683              4.164173510947801              2.6472315367488375
H              3.4202006956682474              1.1770268483118262              3.126947104476047
H              3.4249784148479416              1.9275321419160727              3.2222936759996226
H              3.010881576026106              4.183293943972682              0.4931286497894722
H              2.927733794998784              4.902774304690183              0.7992921486812252
H              2.1826037643064047              1.7285693729737133              0.6025427422608816
H              1.4708822967610433              1.8823340804107485              0.7399550482403711
H              0.3968376689463517              -0.41922776349112645              -2.0494400401734496
H              0.3970869291273763              0.24932401793992817              -1.966191876412786
H              5.5249466964527345              2.4705654507195844              1.1738028142207346
H              4.8949476874243              2.289712235377499              0.8704214089985266
H              4.085561813919856              4.961719923559386              2.9518754168030683
H              4.019035227769375              4.196097712236564              2.929201387933824
H              3.5149450487131237              1.4521697180466064              3.0617794970851957
H              3.3249846004049814              2.1024797980726215              3.1550357064272303
H              3.2361615778427395              4.1663160140220405              0.35246241326176403
H              2.994026449657255              4.778974554978359              0.7162310931691316
H              2.36936780840224              1.3237467764737392              0.8064411244119125
H              1.6840884765273398              1.6348173619780721              0.6527557185354772
H              0.23368931019945935              -0.6322695430931251              -2.1632927916095417
H              0.43530208698119116              0.05782329345122217              -2.3002110823954833
H              5.4886548065096985              2.490221151638389              1.6716093491921995
H              5.034515839925784              2.3592414195682747              1.165468724053597
H              4.217429142445827              4.891038123188717              2.929490591359772
H              4.054661613264886              4.177885570683767              3.1285352045752877
H              2.9083653153614137              1.6429628132461553              3.0974520031720134
H              3.54889376769023              1.9568493637751327              2.9664836625999946
H              3.387737466189072              4.159397464222219              0.49311228197573254
H              2.803424957648956              4.583804593682885              0.5060920461940599
H              2.4504891289833677              1.513282521160907              0.6872654946904005
H              1.957902108306363              1.7167968160451135              1.178241266975627
H              0.30799729903417783              -0.5293995650937294              -1.7754791594378674
H              0.32283397628868504              0.08545194935295025              -2.2485610456653444
H              5.704643018010635              2.5506488704770724              1.194944056756137
H              5.1094795173087295              2.3021155203678405              0.8430944521740433
H              4.256416627539051              4.608270627567919              3.094097207456489
H              4.338984192314585              4.0114508233601525              2.618000086356636
H              3.186955844476113              1.9007947420944213              3.490864499080518
H              3.164473936566306              1.9056628527070705              2.705250677392847
H              3.2082491055167037              4.145789884485573              0.4320523051159282
H              2.753892758517595              4.494291963030435              0.8742532172044588
H              2.1962920843466303              1.5557527558854414              0.9351780124265315
H              1.7203741614173298              2.0913817652325424              0.873111918125632
H              -0.12156827226033856              -0.27399739377155485              -1.6089663614069596
H              0.17250025052528176              0.04578342501489423              -2.148534275275132
H              5.449150329113937              2.2601845486402476              1.2436532425250324
H              5.232735918844043              2.2636696101093725              0.529539279878622
H              4.13807285923528              4.479757388909108              3.2071371746427575
H              4.11460564100998              3.8377138707150267              2.801608810371127
H              3.3723929805201167              1.5029118067459892              3.272779412411463
H              3.3753311287561876              2.2118537447184146              3.1198936821806678
H              2.904701592995397              4.1392805533897725              0.327957598933194
H              2.6359727907409045              4.674053295918414              0.8135108843510489
