72

H              1.3494608566174653              0.9570841571587265              -0.6432329728841182
H              1.2517416876130392              1.2579770686477576              -0.017112023556768406
H              -1.5107226444701927              -0.5955313945151889              -2.3852776008333687
H              -1.1043496145541              -1.1511354191227754              -1.9392328481367813
H              3.8869290032803243              1.7643173889073887              0.5913372074807182
H              3.975644913064722              2.4021714663000795              0.983990801983057
H              4.368689506925945              4.3922390405138625              3.034034098743382
H              3.865559247848021              4.31466626356844              2.5921568147896688
H              1.6639666042771757              2.516662730953058              2.619526345130358
H              1.715793412561508              1.772838538665248              2.6487295253181373
H              1.7329475951604238              3.620858567127776              0.3716789900085908
H              1.6406394279053516              4.048260730357468              0.9006525185801653
H              1.5441195744809078              1.1130671776503183              -0.4828294597922833
H              0.868743237348686              1.3239849076857348              -0.21679518100721185
H              -1.461476042104321              -0.8338251314122687              -2.298391927041333
H              -1.1321536671561983              -1.2254193956084685              -1.7509951961068697
H              4.3799633824871425              1.6735136095356298              0.5915409849766765
H              4.493318453727436              2.393987799364521              0.97112649070887
H              4.3334623645717985              4.3204169448024805              2.992201286850136
H              3.7772748076337757              3.9492497124898973              2.767535781376897
H              1.438515390437235              2.522560811329452              2.6533483290668034
H              1.4306032633614765              1.731578423071117              2.7095305460398786
H              2.1375040803177807              3.953109998618198              0.3484761326192118
H              1.5307223118444138              3.9986520685374027              0.7826055486711819
H              1.6209293155689015              1.2099724189163867              -0.5548771744196221
H              1.0607309762762906              1.2744596586889854              -0.04154235126370616
H              -1.5223273143390188              -0.9722461372252368              -2.349220237198739
H              -1.2392004308418274              -1.1426984336834263              -1.707305734259501
H              3.932431995634609              1.6124445339831557              0.7375752614685429
H              4.461219353748601              2.096618019202591              0.9359470844395026
H              4.08054344681938              4.1804178057162105              3.2248112795827635
H              3.802454017390944              3.9429374651471116              2.6171287167083626
H              1.3415679435125254              2.521992706823038              2.727847644232527
H              1.6210403629436363              1.7482799418472514              2.8996678411512193
H              1.8627217806149083              3.748524601043848              0.25083679129134395
H              1.4701862028310502              3.8947275747499805              0.8198359164680006
H              1.6021912071849298              1.240056653431652              -0.27490341041542155
H              1.0481010643291369              1.1675871006723206              0.11905443925189678
H              -1.6431219376228203              -1.0708958717881767              -2.351849328617298
H              -1.5047866156767085              -1.1482943359062412              -1.5268878690607546
H              3.6802320735187073              1.6056098729962933              0.924216266800343
H              4.27014033749316              2.112765642960968              0.7725234508563937
H              3.849056280000575              4.574511891679456              2.8939410142485857
H              4.031975696555746              3.9827053104189614              2.455633354224886
H              1.4202687041989146              2.2915756799251645              2.6922926887331187
H              1.639112185163577              1.6942910947833858              3.0525794824613435
H              1.9546948704969505              3.867999967009357              0.5952363265141294
H              1.3703816432230036              4.227998909740513              0.730260087108055
H              1.5669220548777636              0.7071657719355052              -0.33220996773246253
H              1.0582637722064              1.1030372327617195              0.01664516357890281
H              -1.950439613338717              -1.0206018090222453              -2.583315726626107
H              -1.7656300780141654              -1.3124318112887183              -1.9778790892116151
H              3.8092256016244987              1.6197883260905162              0.9350743973938849
H              4.297576582701911              2.0682453809872907              1.2461725074442707
H              3.7729770411273695              4.760280045465598              2.9413095811895067
H              3.576071537869822              4.153911769532803              2.551314599306333
H              1.2435690720098564              2.3361223373341065              2.4315436574936506
H              1.6922472103190014              1.8911805088511866              2.7667603931201574
H              2.04588857554283              3.8056761481955155              0.5896830474178878
H              1.314611772264488              4.020290985775743              0.7788678620580495
H              1.0057362715158658              0.9363933438575858              -0.6152719717975349
H              1.3963236642441919              1.1211555544109588              0.009315674275897686
H              -1.8053628155400239              -1.0258926335652885              -2.6243112824358983
H              -1.2803441780993163              -1.072336457834224              -2.233405746667982
H              3.899729423132829              1.644334176409737              0.9550987806688676
H              4.399779820111605              2.2256467985884107              0.9083079414178852
H              3.8712778053401187              4.638924642224065              3.0547707464673564
H              3.805040990994284              4.444623102059442              2.3499192286705095
H              1.2065081791643988              2.01303755178849              2.368212836023604
H              1.7434550801450233              2.2572832546573443              2.7154223699907005
H              1.562672355101957              3.761610296244873              0.3513789893969424
H              1.5612659892922778              4.097124199642471              0.9738483045332477
