72

H              2.355199191316048              1.2537910866970368              0.5527506765441169
H              1.9807226755635396              1.8148032546818993              0.7961462614595172
H              -1.3305747311549907              -1.3662948062864975              -1.7080902841672445
H              -1.255096438120951              -1.6683216663124865              -2.2591654617241343
H              5.03729550080347              2.4991504269470752              1.2463830373795124
H              4.87794728479759              2.448702808601259              0.5468781972656025
H              4.699861566765488              4.623727535668105              2.9355968644119184
H              4.566877023684202              3.8619634801382743              2.9895330909315354
H              3.4196710233845145              1.9701636362686388              3.5029595592364022
H              2.8839221772190764              2.4026053145378428              3.351201402189697
H              3.1913714040442356              4.6025325704286635              0.6587546704621133
H              2.562114159477142              4.664532992943944              0.2796482861350717
H              2.551209164189706              1.5554765067608831              0.7924109482645559
H              1.8654813116376687              1.7079053954097676              0.7091831527478772
H              -1.7538451006975613              -1.4866446351529705              -1.9001953140731918
H              -1.4234909992548126              -1.7379303996129791              -2.6140699944624215
H              5.226376260722901              2.396399467351067              1.220188789049772
H              5.042880092132468              2.494267101731794              0.49874947912250556
H              4.431292968901384              4.734950568515348              2.9640364838196054
H              4.469394628943719              4.041814615775977              2.9006290849458107
H              3.04634511167891              1.5865838349054284              3.6049977204541586
H              2.758709386380582              2.223305774319952              3.640726252764164
H              2.9723715420318517              4.652163180801192              0.6891807619311934
H              2.617513318314306              4.2271959463324995              0.22346143476206082
H              2.638512723280865              1.5649991208217353              0.7154547918487992
H              1.9269789785229048              1.4192654096729045              0.7841615722681328
H              -1.574551035432157              -1.1953794637860304              -2.1364940880747065
H              -1.1228622563399644              -1.7272586380444326              -2.606211984978641
H              5.259506212238824              2.2871261413937485              1.1993479898291315
H              5.0808416512757315              2.626885040784672              0.6060194511963081
H              4.50668595652026              4.785568546088875              3.015898844242399
H              4.5597923325327265              4.003934561851423              3.0412097107484835
H              2.9030557716811973              1.5656972336317265              3.640645063919365
H              3.0731270649969464              2.4166194712727647              3.613793854581784
H              3.0071797561261424              4.239141589566721              0.7252558569936609
H              2.3652100282386153              4.11761728552585              0.3172606736883858
H              2.2628688107240933              1.4880690794513867              0.6750006754467232
H              1.7756898653033772              1.912639612168327              1.0808747001018946
H              -1.3009847631871745              -1.1344886148611395              -1.813345883218182
H              -1.178029104623824              -1.2504483911643631              -2.5203445643469204
H              4.689326676865937              2.5413695681835233              0.9897601665713055
H              5.06659676864582              2.4671002148390513              0.4224271122858935
H              4.390394398115404              4.819321453994833              2.8715874251328604
H              4.828505060366808              4.301760009081068              3.0980134952382774
H              3.4204270047112435              1.5251532553496603              3.6567355317193373
H              3.3569602330973383              2.2246937274125442              3.3453733318786774
H              2.883283599754781              4.441995009092516              1.1317590335190957
H              2.7285468766386995              4.413567472055575              0.3633745843874345
H              2.257025336243275              1.3679839005410566              0.6636234003285629
H              1.732566419675537              1.8140671530098014              0.7261601706403631
H              -1.2771928291757202              -1.3103664699251616              -1.6934416999136
H              -1.1732013044003322              -1.2565230606187596              -2.466044868253327
H              4.903125943601864              2.153652194432964              1.0427358260187805
H              4.761550220260519              2.1541195782628617              0.37149553836264043
H              4.191903513226812              4.671770236233531              2.836257723571098
H              4.522752336923291              4.161130399181992              3.227771403856763
H              3.764818085890905              1.773004360854229              3.766035278083795
H              3.1007483403699183              1.7800970357875294              3.2024855077010277
H              3.070318125430003              4.496102300852255              0.939558912228955
H              3.117224728427329              4.414374904338996              0.2394123163481618
H              2.370038927690256              1.6505173462981857              0.36145501731584656
H              1.764370899697107              1.9313574126503954              0.7516153911012797
H              -1.107907615328094              -1.3720987131630957              -1.7822965990179243
H              -1.2098221588248623              -1.3916928087429765              -2.4632123046899586
H              5.018610360590865              2.098260478383847              1.5496582649964947
H              5.227367607003432              2.27825144535244              0.8423427258186958
H              4.420385479093563              4.67460040560323              2.9656660547302094
H              4.611860912604482              3.949642371163422              2.751257165780816
H              3.584079145095132              1.7134069849485865              3.6425272382406675
H              3.003749418432118              2.022262989950088              3.257661408879383
H              3.2919784343010248              4.526854335163696              0.8984754699790114
H              2.876343029709563              4.463228859863746              0.34769206628369287
