72

H              2.2091519143256186              1.341128505554314              1.046499223698117
H              1.5385096600784647              1.7368951945769984              0.7796111775326153
H              0.4108417308462999              -0.7737139727117299              -1.790583400122764
H              0.2570077471777947              0.04384796929930107              -2.0029199023908766
H              5.72704978727555              2.6624332255405565              1.3138439642813362
H              5.2629604088839725              2.0005511269509166              1.178922760169764
H              4.026161537568462              5.000403442139226              3.01021113620697
H              4.38591514888501              4.385948614287074              2.8757715205984398
H              3.1409752877789265              1.5001160413165402              3.107420992815939
H              3.387582061769714              2.187878549714577              2.98388406671611
H              3.3333552489093687              4.165613187756208              0.3479002501819817
H              2.9688519353639022              4.636031963294402              0.7969198024801913
H              2.4658637735908906              1.3844150311905061              0.7862876577610995
H              1.9273630724785293              1.8918222440219625              0.6689021439666823
H              0.3286031200872515              -0.8666998111835499              -2.0216107221253083
H              0.15509082360263032              -0.13186992228296404              -2.1222357020743834
H              5.397068998701579              2.575263453279619              1.284422990703146
H              5.261378559574567              1.957347584536074              0.9442610346391369
H              3.766689640450336              4.752072172121133              3.1227567803349503
H              4.285237419081933              4.30682611619282              2.8051626337034987
H              3.0087018413847377              1.372898303473613              3.254155990088492
H              3.1613846763691753              2.0604699031620375              3.1862402047864573
H              3.1514826126715323              4.1015001094304395              0.7034987777776849
H              2.6199849800780903              4.4992465892972              0.3661786717143939
H              2.4305510857126964              1.446966612220987              0.8248815228086163
H              1.7247822583267998              1.6767402689491382              0.8921121021983508
H              0.48231492982398283              -0.5992440084297997              -1.8239614761196088
H              0.3041088389889594              -0.05227807287171361              -2.2673644895216256
H              5.617946478464601              2.4771839321743507              1.5559056056010856
H              5.198121234130314              2.00409625346158              1.1062613362332399
H              4.079562701382634              4.576574592236869              3.172021380744033
H              4.218553244417667              4.267427022927457              2.5450549864622003
H              3.1370728338122826              1.2934562684445592              3.3320546219270155
H              3.2942335508447753              1.980150281361133              3.1810048292929767
H              2.8041481620649717              4.173835177337716              0.8430069188379937
H              2.572838845067798              4.67715479752522              0.3883465683238395
H              2.2485775731249804              1.7137714847301226              0.6051561078862937
H              1.6621382116843435              1.9058620682559255              1.0148466013277273
H              0.5218057276841104              -0.4635104657176694              -1.741330288030046
H              0.44011393029390233              0.25484485081625724              -2.0755484644996143
H              5.51068434674548              2.5630135241894187              1.0570962653544362
H              4.968158630056274              2.027583857309044              1.0203714665690902
H              3.9667453396918404              4.485881151158206              3.0703330558750364
H              4.285493719351352              4.204971375958896              2.5256975870449923
H              3.782031746684374              1.3964037175169488              3.3419261505945275
H              3.182957792903736              1.7211986800562313              3.2253151626143532
H              2.781616788576258              4.006627574309715              0.5671124252177483
H              2.821749681211678              4.707754428386774              0.5833507810986852
H              1.9614248386917381              1.5596585185169594              0.9314375767799247
H              1.4212960078353851              1.8821969638914402              0.501254464149758
H              0.4852320534055585              -0.4802082602607443              -1.8274571970124394
H              0.7059182106518861              0.2517501499800806              -2.0074421778539064
H              5.325504118598671              2.3899819311932875              1.5232864348734
H              4.983685272890912              2.0597879924153006              0.9330491954317326
H              4.154613143318214              4.773998592898761              3.134603360413385
H              3.9494124527611634              4.113836598022382              2.8490715590987605
H              3.454228996876274              0.8986412502042364              3.304690888500834
H              3.4442889140052517              1.6091612179905201              3.5113008648411657
H              2.9833927189939478              4.00003215239917              0.5513129789962078
H              2.963686103466051              4.691832006706672              0.5812507351586998
H              2.1241831053975324              1.3594596651030324              0.8545085392694006
H              1.5611511160083666              1.7668718384832398              0.9371039097481516
H              0.8706753474705062              -0.6065544083785186              -1.7629018199221669
H              0.6101991970841973              0.04698398063058224              -1.8548036828057903
H              5.598637274738489              2.5269190617688153              1.4603311236277396
H              4.934477382650736              2.0552725732425894              1.4415112369590142
H              4.287560445476516              4.798892629263989              3.185544474094312
H              4.226397909585842              4.273554608540389              2.713910330050906
H              3.27137105535013              1.2976189696443854              3.483909292452977
H              3.2088194969472683              1.8246350369256161              3.065410101612765
H              3.4193444639395314              4.072465884314417              0.5345458532216254
H              3.080657170645068              4.727741001889106              0.584811768917388
