72

H              2.5746898333862847              1.7259237704259283              0.8237183238669257
H              1.929730866098897              1.4329903166471183              0.6305478549649713
H              0.9929911378268743              -1.0372782709010908              -2.0391646077259113
H              0.4355459391781684              -0.6361705072141423              -1.7269890863511825
H              4.773809548507056              2.578957215815662              0.8472967746102035
H              4.618965318683003              2.2204512916898773              1.4208353089799626
H              3.6970707789618857              4.63200186338784              2.8852157958308617
H              4.457527110528066              4.694398438585851              2.953199010437869
H              3.403789339859291              2.081438166957678              3.437526263003341
H              2.838170794715724              2.2042497716096965              3.827475256859401
H              2.9569598380038506              3.7722909837477094              0.5291222530425818
H              2.7691714249562738              4.2941339700272065              0.0929243316387116
H              2.402362262104434              1.3567994814254083              1.0228585836317785
H              1.9867866474723017              1.8276163077998324              0.5731423547413237
H              0.78155769644712              -1.3118811665252506              -1.9795133757847296
H              0.5262654417151047              -0.5771714001193394              -1.8339900804593583
H              4.582212806287157              2.7223790517791997              1.0137573120273522
H              4.923390342494319              2.015890685482256              1.1570591351205735
H              3.663738855084728              4.500894849044287              2.947128180672424
H              4.437869966484692              4.485520214538759              2.9827258380770227
H              2.9488916867469244              1.5942854949333698              3.5982567471506273
H              2.919736915344626              1.9595931304753513              4.1527058468996945
H              3.01152066797769              3.9672051639019386              0.8215823628628464
H              2.7299557338995353              3.9632233899381593              0.20168392087606749
H              2.5423119159528627              1.2543842551070468              0.9003846869987303
H              1.8919188314696151              1.5804705768247225              1.0564621159024825
H              0.8900959553585304              -1.1012721055738837              -1.6582491467011569
H              0.3629369769686881              -0.6031783234283414              -1.6359504356686183
H              4.589570758823152              2.4568551816770956              0.8750966209199352
H              4.884705278203609              2.001791447216482              1.4412762730845248
H              3.9330878165618177              4.109696749717769              3.1210298586808465
H              4.468688363210981              4.61815479105664              3.0328024904869113
H              2.967751150889025              1.9402437389757416              3.4780759164785646
H              2.780158636496722              2.2895384837055714              4.067233333992433
H              2.743036003239848              4.048911526561485              0.7398795508926803
H              2.9651889284984434              4.0027269879471685              0.07312568640595202
H              2.2756243107890137              1.6453688814737608              1.3907525420266702
H              1.891997428123785              1.5244130219409786              0.8286236600405426
H              0.4733377443666577              -0.9826691467933126              -1.6484456049908949
H              0.09979412129576262              -0.32214701307716875              -1.602491472690844
H              4.498057310473929              2.442478294655274              0.8485899148616309
H              4.885703900914735              1.8412974721253768              1.1664906156461725
H              3.9430776821423805              4.306913052458178              2.9561998921235064
H              4.350666845489399              4.978266146328705              3.075129318774938
H              3.318601803902791              2.3363012023928738              3.255121244787334
H              3.0316105377945037              1.9390828227194914              3.7293940161662036
H              2.480106084689252              4.108152946696785              0.49143095256120234
H              3.151581889069875              4.37361127920733              0.3353553014797481
H              2.470717637773019              1.3548494742115205              1.1018698157323017
H              1.90070803093048              1.730211540864061              0.7265175951209928
H              0.6462467997322545              -0.9005469165028239              -2.0046572121383437
H              0.29044835126956653              -0.4414043062064619              -1.5682570443128707
H              4.402328438085378              2.1383928968129506              0.7103713675914952
H              4.740631228989342              1.8060901756643526              1.2391234911104174
H              3.4709023602053644              4.6545666860381685              2.9580456109901996
H              4.191631177420929              4.785835547142493              3.127696991559447
H              3.2770330772594787              2.195961487178694              3.1791792517326054
H              2.836699313343924              1.893688772879224              3.7210840430828522
H              2.6269943638935507              4.118655462384218              0.568123337356093
H              2.9884352711086946              4.256712954553329              -0.05294224626409197
H              2.478445567366124              1.8109604497388077              0.9084091091010073
H              1.8223853879047032              1.67784426043394              0.6763755892943937
H              1.1207507589408097              -0.9966576282926218              -2.0433160568235125
H              0.4599008999995573              -0.5760094299960142              -1.7254677279810402
H              4.828687292188818              2.3140161984163607              1.001930411225291
H              4.955650383398897              1.9010211653179923              1.644544034395708
H              3.674518841126683              4.940748462580642              2.8290577858011616
H              4.37510618698077              4.691405868216295              2.9098416161620912
H              2.9895867700895793              1.9868600265499234              3.2388110887402246
H              3.014558308463503              2.1758077604637216              3.9000719330702016
H              2.879592159581888              3.9918806477825752              0.6803444021303965
H              2.880797026903267              4.4316020377153444              0.07530806877192738
