72

H              1.0482120754711055              0.7557799002087182              -0.5778892813244447
H              1.6779095949113967              0.6172150165522726              -0.19900527226373269
H              -1.0502797672071642              -2.1968715273381636              -2.254777289692783
H              -1.6565182850155116              -2.384197840406549              -1.9839318856271428
H              4.207479123203015              0.8148167463410486              1.3498852638780137
H              4.537266125819544              1.4341807592846203              1.0340467348176017
H              3.9560571984522794              3.6699189555493366              2.8420018939881877
H              4.1648972607074315              4.29706170836252              3.2409340594112357
H              1.2585265982548417              2.083291917803659              2.845574448480639
H              1.5859162317991449              2.4459976791375717              2.2805530631141084
H              2.588648123243872              4.282229952378111              -0.08234093924855888
H              2.116404068230851              3.9247884559800252              0.3225879534786005
H              0.8329519751451843              0.7721601541381663              -0.5090990000663899
H              1.4771756823957214              0.9013110744964841              -0.04992078267333417
H              -0.8092164971070535              -2.2294008486426913              -2.018308588531489
H              -1.6350316376627203              -2.1179682606470345              -1.849868879211851
H              3.978029177189379              0.9473705692518343              1.2594519150259331
H              4.120144424327382              1.6260403355783493              0.9932994542037042
H              3.8887051449645083              3.5728818326869383              3.0078503643347707
H              4.281706291325672              4.236675180516854              2.8750677311400534
H              1.4482213788666969              2.188861863592478              3.0276171403995327
H              1.7280456626389975              2.2055567320446627              2.2181186129858523
H              2.8572021922449737              3.924982342994447              0.009621772050863986
H              2.15180009521797              3.6875485834749457              0.08489539728648325
H              0.8578013949837254              0.6636742662480564              -0.271315938972486
H              1.5099681203018118              1.0090313571143248              -0.457672522064105
H              -1.0953139853500797              -2.5487834750539773              -2.1214312387293335
H              -1.7816537927288953              -2.229775916220892              -1.9277505052832984
H              3.570600630948668              1.2730994910797475              1.326857403535825
H              4.257604464544822              1.378357126272445              1.0720518551440719
H              3.617371806152998              3.7672052489384917              2.8052522124683685
H              4.310058660411885              3.937741704777968              3.04590533871975
H              1.9642456257170615              2.006432836488265              2.6256728283878252
H              1.5693415786381573              2.2916094818998354              2.1140475557592473
H              2.9038075523989235              3.8895446323873344              0.03461020164509869
H              2.2696560393792096              3.925637408690469              0.3528398389924311
H              0.5903656941231754              0.9922318099567639              -0.314827287190665
H              1.3261971824045389              0.9593074423045054              -0.4347926408409474
H              -1.204970718496789              -2.407485294014092              -2.2140777368238314
H              -1.779351385228392              -2.6851328400768724              -1.9394353988781656
H              3.712168674599896              0.8278569372517589              1.329253701209333
H              4.224201648167476              1.2381077824354028              1.4591756603525363
H              3.5308038301455245              3.660879999630206              2.814848587482313
H              3.9815695036919694              4.088056312206111              3.2463601041034136
H              1.624877343470878              2.0027084405850832              2.853448710818106
H              1.2193311197210994              2.2468732931979094              2.1960960897038944
H              2.507522388927604              3.9077767458250654              -0.016659187842028876
H              1.9071134246294374              3.730984178453308              0.3558650850691383
H              0.6382694073954234              1.0623414000141198              -0.43936526161360134
H              1.4732107521120275              0.8394372534257756              -0.36533647922531415
H              -1.4595289396872309              -2.263244752672447              -2.3418896354058214
H              -1.8877835254108375              -2.781609598782562              -2.047108609290545
H              3.7061829196659195              0.9725390488342982              1.4542387631534797
H              4.304313365080383              1.1098345219388976              1.077246965456008
H              3.514467063007546              4.193913250899339              2.7719203577440936
H              4.322561040456818              4.310680959532027              3.0007862218820134
H              1.908089203346111              2.059147898037962              2.795771190326384
H              1.5896263244117106              2.27783016913313              2.2323555144798255
H              2.4602395309471237              3.9564390831881413              0.35140082068690154
H              1.752471008503405              3.9920999083486595              0.10196798425728607
H              0.719240564481042              1.0171124078604616              -0.759541268630891
H              1.3633057782188636              0.9462766524022521              -0.4007502389499849
H              -1.4769401665840693              -2.157830075346766              -2.368406354397278
H              -2.045419854519066              -2.5045114323368667              -2.105115910149244
H              3.8612063971015558              0.8758553523543684              1.0563592082898576
H              4.310456546419986              1.3686879347068779              0.9281048155869985
H              3.584655708738001              4.0415159537988385              2.9097316673593254
H              4.230403710593898              4.304155666312519              3.158536671874065
H              1.6511583671696353              2.0153578360606543              2.8769293468564388
H              1.3455793063639727              2.378221794118223              2.3473967081470004
H              2.544626148887389              4.169168357717675              -0.07460755717394936
H              1.8856986115059582              4.035447748810758              0.21350394522404037
