72

H              1.5851523327477879              1.071510866177323              -0.6425170436127969
H              1.3482833026845409              1.252106261775729              -0.006755533484195839
H              -1.78086854331233              -0.5860823083471842              -2.4349870198378882
H              -1.3198975998926044              -0.9675277873248339              -1.9200021467548691
H              4.004681514964484              1.7369588049579354              0.7076569000491096
H              4.345626203709813              2.3591613474462236              0.8038319781865872
H              4.092533163538595              4.442952844906248              3.0449595078052143
H              3.9402255509696213              4.264134313493599              2.41829167097743
H              1.6554443717803307              2.3908464087471093              2.2805097396373215
H              1.7860920468359403              1.7799463576565617              2.6781976905476776
H              1.7183001398482307              3.6980152215957847              0.4043364861080167
H              1.6280897487807955              4.225228039560578              0.885307450186516
H              1.6339874134725858              1.2463482772712229              -0.45734355820545197
H              1.0151647575967493              1.3012372778019303              -0.11056431040043024
H              -1.4566956554373665              -0.7801763762262117              -2.4097637149047513
H              -1.1351546124965672              -0.8234528729586821              -1.7750557838824508
H              3.9305299607196407              1.793300425062375              0.41619349487882257
H              4.388499659924979              2.153758820627035              0.9638467715680303
H              4.107980432447645              4.109379528695451              3.3052857732707928
H              3.7050349243887677              4.109926445521618              2.6971071325810554
H              1.4126951402978525              2.5108295064080064              2.424031491028355
H              1.759908219932438              1.8178952121483858              2.6367073815854982
H              1.7984918674139603              3.831756454080001              0.05570760694473212
H              1.5528666231323531              3.8352401217174195              0.7558669652864036
H              1.8443128752549516              0.9944110074726412              -0.417674298413786
H              1.2218803624679924              1.2623854696118915              -0.05852790793133593
H              -1.3900190768320457              -0.9335496315032666              -2.416547505585241
H              -1.0013210946275624              -1.0292365650708037              -1.7358304484592224
H              4.183525105470507              1.5891567589110174              0.8598815597768
H              4.58430078446169              2.200129208788917              0.9274850721389651
H              4.161753328578696              4.411861792946814              3.156956398491549
H              3.773090633193785              4.139854511337409              2.6159753857687598
H              1.4669053185560437              2.4283988781627226              2.623419538997863
H              1.6507629442646659              1.7112713631206649              3.0520187681797997
H              1.9597677364933634              3.6700766293717852              0.17892694760062486
H              1.544661741819555              3.949103985256603              0.7020466715799693
H              1.7526671261798512              1.0047788367126536              -0.36317269479640074
H              1.0550433206876186              1.1628255402427228              -0.20681049964756718
H              -1.7030392835313384              -0.963176870673588              -2.509741504923968
H              -1.3230338469706564              -1.1193626871696356              -1.8487909205277289
H              4.19375703480675              1.5401430492463415              0.7215902959748334
H              4.392813529252739              2.2245727524239047              0.633336982156879
H              3.7614580780652336              4.740440867740053              2.9644615675485984
H              3.8089942910415666              4.096662781174784              2.572300653871748
H              1.437559544303501              2.356710918787261              2.7850083672965256
H              1.5272783392741396              1.7655766195706606              3.2396495703558537
H              2.035456674537529              3.8009568003197387              0.46551167935120996
H              1.3892647851947317              4.092659294179461              0.5156781158160492
H              1.390825086898693              1.2203142216264697              -0.5628035686167321
H              1.3113249112340848              0.9161829707871914              0.04414089664942778
H              -1.8273370726603524              -0.899305176766914              -2.496218089722795
H              -1.4926658888843418              -1.3160333462314207              -2.0999070646660942
H              3.6634603318103585              1.7541594684702384              0.9429218230469297
H              4.250830718188279              2.1136468592325675              1.0506032208156209
H              3.7750232365828853              4.437083415180967              3.112361633859364
H              3.8859894749673676              4.266064228434729              2.417698798245208
H              1.3473534104299916              2.064434871562369              2.4560151183030436
H              1.80465650414458              2.088172499981044              2.9800048596277255
H              1.9131238218556204              3.920833797947503              0.6778602848253632
H              1.2635387495070571              4.192228186144319              0.9235450350039522
H              1.4157482500581402              0.9556778232848941              -0.6527278165643349
H              1.4424947882522883              1.4972121641178537              -0.1792227901139727
H              -1.7553951504442986              -0.7130563402810096              -2.3142434965075105
H              -1.2465875840504772              -1.1191828626119729              -1.9402456914492867
H              3.7988825716994574              1.7158899331476152              0.9368283396267968
H              4.067068570089157              2.4151942458134767              1.2530200187121507
H              4.064338161314983              4.420760403926201              2.993456483865119
H              3.876859099714935              4.262625320392359              2.2990747091683708
H              1.3287078463466524              2.33037422901806              2.619001953813316
H              1.6663700597503237              1.7155583417032538              2.7404362749566515
H              1.637826237071268              3.725123266243317              0.5376836440684661
H              1.4770946975963772              3.985585088599973              1.1900346148655818
