72

H              0.9406681529774386              1.0923347774733687              -0.46268512736574635
H              1.5530116176086186              1.1718732127430398              -0.027029834005358345
H              -1.5652388895303941              -1.3894051429723158              -2.224107276188029
H              -1.8663945298769427              -1.6044273394049124              -1.5626983542945896
H              3.4109432390974375              1.4811591669461246              0.9549031324096837
H              3.9330546231833177              1.8125893294698394              1.3218152747681693
H              4.239974125489658              4.4018231745097225              2.7005683967852474
H              3.768202256346649              3.754441994114369              2.8052105823693623
H              1.2642058599281547              2.3447009699760755              2.569858130533499
H              1.9305893621717694              2.0151104132581814              2.2727427494764685
H              2.170757241627826              3.88678722792685              0.4951784372197191
H              1.5037172347017873              3.9436576489029713              0.9275329413964907
H              0.96283091174941              0.8379079756111791              -0.52603227657494
H              1.3844727819123883              1.3453048833189734              -0.24435418114784252
H              -1.6754036262478862              -1.5411370653372205              -2.430585652655414
H              -1.787177367354574              -1.5193989965228676              -1.7717190784933579
H              4.023258942873173              1.3023054528718612              0.8467539647604161
H              4.366977076674386              1.8756564312191375              1.0555889639111504
H              3.9403564610758983              4.66463309295905              2.4400756596661584
H              3.7043214728734957              4.1511923189293505              2.9221014674527126
H              1.1392235456257465              2.317061202747559              2.707015890392065
H              1.739567942203123              1.8415910934457975              2.5212436035252286
H              2.3193174638011556              3.9364639389777443              0.2831808925512115
H              1.5655529291496757              3.9950967936189197              0.4884615421361386
H              0.6790079411962378              0.6464866133363107              -0.3514201602394192
H              1.3049986451234143              0.991359529980745              -0.2920359362369808
H              -1.6390045920250857              -1.51617574822824              -2.766232084081686
H              -1.6193350503271637              -1.5539799221041166              -2.032499583248224
H              3.8574688932080354              1.2813955932632124              0.7231085381471589
H              4.311778677059613              1.8296150544820644              0.8213562084930683
H              3.9836451334518954              4.692072082586848              2.734379159608088
H              3.455575028589535              4.114367320368405              2.917999316994471
H              1.2177475781875196              2.3143755702745588              2.63413555123053
H              1.8830453668713905              2.0916486420141753              2.689862758495744
H              2.08385162871222              3.8341050556321963              -0.039837027454817125
H              1.8037343602091458              4.148426452279058              0.6263873219472122
H              0.70646433129384              0.6008261198936148              -0.48175306822372066
H              1.1777098412154536              1.0235981844037672              -0.01664402976955005
H              -1.3247465506428084              -1.4356499507530023              -2.4654052183478354
H              -1.2423525725629028              -1.7398995025900714              -1.8223690019629386
H              3.853853371819594              1.3819914445553643              0.8535384915317504
H              4.083413162573291              2.0396981461257075              0.976205946126223
H              4.245938285123445              4.449627936996973              2.552847192638649
H              3.7499667614980465              4.104424960532348              2.954124811840069
H              1.0576193941762733              2.3539917725506876              2.9067685379194796
H              1.7473359784362696              1.957793743802071              2.6613715547681136
H              2.2254530933887082              4.046366040295713              0.33704776267694275
H              1.6671965532945938              4.144516321882029              0.8261928257302972
H              1.297949029792666              0.6275802123258302              -0.6645168319637332
H              1.0453238831125382              0.7832077457711201              0.07048006528774978
H              -1.5535424500817194              -1.2875902981414595              -2.195415936508263
H              -1.5085461446470128              -1.94781547755926              -1.8682818481503616
H              3.870683867797436              1.4359193504665464              0.9611771489399404
H              4.146714722631718              2.083493931573013              1.0813329534387452
H              4.205427756786176              4.347542374801222              2.4012069205611652
H              3.9414883506318064              4.112432570387669              3.043277076204434
H              1.2508568735182415              2.3757345662087768              2.9651927914711944
H              1.6864461269893256              1.8098879018497225              2.5779091857986285
H              2.387045237056921              4.039249996180708              0.7563037480818928
H              1.6894978197611106              4.097327162311302              0.7572594760768061
H              0.8552919288660656              0.8553320357124857              -0.5197761026605988
H              1.2301326328417133              0.9593713526495661              0.15633351024936792
H              -1.6941599653172634              -1.4611027313152098              -2.3275719922906166
H              -1.722167639175737              -1.6554297719282003              -1.5832371783275845
H              3.5704702624976394              1.4749168275110456              0.8033800864228282
H              4.115938832835265              1.9502445908898396              0.9705525808687372
H              4.0871447806399415              4.398440123554908              2.637415537724583
H              3.88717302258936              3.723393822789741              2.7736745771812155
H              1.5303227206208376              2.0789960434604664              2.812636524942419
H              1.5181715119647785              2.1812594810265256              2.1597880272098204
H              2.2335261357304037              4.206392034846071              0.6153701518305773
H              1.6052852034602294              4.243455116839598              1.0111433929989566
