72

H              1.6330146930458627              1.77646279375376              0.16902859791604102
H              1.2737699988029085              1.4512147826269182              0.6299211834013916
H              -1.4946470857153253              -0.1947802075563334              -2.2377356788853784
H              -0.7738255566933624              -0.20900739893777698              -2.146274778233865
H              4.41738202822063              1.6807646785651158              0.9128112671600472
H              4.667607862086412              2.3252526527109687              0.5979347908051533
H              3.3789325739768876              4.054667690696254              2.8823596043763224
H              3.8973971545887984              4.55359134858012              3.0182456787765077
H              2.2016536677937726              1.6335361384119929              2.8007792289611904
H              2.5085593817836283              1.7929068594584223              3.5258262335961574
H              2.5336061626481885              4.146952074524379              0.30252434572533465
H              2.0087805302315975              4.099249191553611              0.8166294507017353
H              1.4279996143034985              2.099935098661668              0.24452326936165297
H              1.4967312570469382              1.3666109335523606              0.20243679343092394
H              -1.2982650303047025              -0.30855794595304503              -2.2581529226832555
H              -0.6610403156858677              0.08506338829518961              -2.3196186485461605
H              4.371345912590225              1.9159190552767218              0.9603336657473329
H              4.285959159957723              2.334319371946219              0.3162944106327704
H              3.4224315982728997              4.476679326240152              2.389220572399105
H              3.9355718335665952              4.513369513912355              2.9271601765818542
H              2.064859569505272              1.4556059765990346              3.0933398824693485
H              2.6886507558753423              1.7098013789712228              3.3813327316332953
H              2.4803130625962946              4.19369911887573              0.3695945836656574
H              1.9917058265417447              4.319668774925713              0.9196761522271969
H              1.6525969876767514              1.6378106487160367              0.16636648117721
H              1.1870719384914215              1.292116016706843              0.537082011521276
H              -1.3319365699483152              -0.03310141185169372              -2.280258093852232
H              -0.5532607669412569              -0.07802567576788234              -2.4480062337602737
H              4.260016386928037              1.8501327416569957              0.7194440071771385
H              4.272821735410437              2.6165476915138974              0.7495155314740203
H              3.4383923102503444              4.3152569217415016              2.7334058308286164
H              3.9880533551201935              4.818233311537975              2.772144336914914
H              2.25120222283609              1.8547320063295083              2.724681098915288
H              2.8838915915360994              1.6669380625753296              2.981468729261058
H              2.574064937424046              4.260126561969954              0.33230923127338524
H              2.058014136517536              4.483764827477328              0.9105674686963405
H              1.5501431293607135              1.7880853954286815              0.11855934696727218
H              1.5071780738020202              1.1960479624718905              0.603803915195161
H              -1.0845164086520187              -0.11767023055719228              -2.2295287401949375
H              -0.37754392831233635              -0.05981932927535587              -2.643894775468044
H              4.651776416363163              1.9128615893875296              0.6438946171476552
H              4.590596913615815              2.6070110278023764              0.6520413865750986
H              3.619696522766174              4.072211751777264              2.731680419319378
H              3.9638490218642404              4.736570979912823              2.983038645798128
H              2.345739896911444              1.486037998684547              2.545732320047988
H              2.4570864640866312              2.10489617447195              2.8328724315876763
H              2.5742795469137025              4.1887264553854715              0.22023463472922353
H              2.1509591639297283              4.178598875897404              0.8290801324948631
H              1.6263544831021635              1.7299038217801757              0.42213302437401695
H              1.6891072390078896              1.0267658565351652              0.6259152370706791
H              -0.8944436159715795              0.08933598085929552              -2.015801199582701
H              -0.27904832817775294              -0.04493562503347746              -2.2513416111080367
H              4.3710426268739555              1.772136129380504              0.44112510743310074
H              4.673481772747051              2.540319774709766              0.40563832077974604
H              4.057054474037998              3.966271665658986              2.6621561791046373
H              4.013244048462882              4.501290571765211              3.2655204542382124
H              2.4741076871816197              1.439316162564594              2.7025808963132136
H              2.5831905672477475              1.9757211556463017              3.192483221145074
H              2.38415180993942              4.191922855052146              0.22368782944710283
H              2.149672937638356              4.09945430389918              0.9676246598561461
H              1.5552958552896838              1.7305160851966672              0.30234579723733207
H              1.5117181827129695              1.450862498505292              0.9340713937883592
H              -1.1594196333816758              -0.06580425105997134              -1.9438354826364743
H              -0.47968133567695914              -0.15580828399963717              -1.8123805958743953
H              4.466901070534469              1.6487513422001474              0.41831111417663897
H              4.713173392099973              2.4203948078576016              0.3913787584930126
H              3.7263603258933022              3.9105149489091495              2.8263186196091925
H              4.162644410830925              4.457634878591389              3.1045154463858298
H              2.1710875928500526              1.4887570452452938              3.013363230063963
H              2.7355523566818434              1.8882303428304545              3.3487683660364205
H              2.5090171357306175              4.339455751860988              0.26934457909146886
H              2.109429152264377              4.148545843858241              0.8901925648093733
