72

H              2.1758072431030007              1.300749866586989              0.7560202581139093
H              1.599442591654746              1.7886349403131125              0.9009675681395185
H              0.6132768500270843              -1.1983786683925473              -1.9687118445874212
H              -0.18023179243945478              -1.289694091555969              -1.8003067351994104
H              5.109232504560415              2.0035997379531563              0.9192111917486352
H              5.136231365547858              2.490027815142935              1.4275871188651592
H              3.6041065272863775              4.758596538645442              2.592802428390463
H              4.219608293933867              4.604019114322846              3.039013923086633
H              2.5384492729061376              2.5843190612637525              3.644269021403884
H              2.6298856469277165              1.8774875245686036              4.0329943423285375
H              2.9006237951418603              4.454389315955817              0.5294247582277011
H              3.0414128737479453              3.7786476863345397              0.21164901084033325
H              2.2291575512584254              1.3727850933461696              1.1856199024202745
H              1.796756237306832              1.6028071956388301              0.6819662973408788
H              0.3759506033122054              -1.2305472770995238              -1.7957771723412328
H              -0.2987299418676663              -1.3254760972005277              -1.8433770626235502
H              4.984591431895101              2.33043528943142              0.8376504502593868
H              5.103339085330692              2.7579423247225634              1.3910178563913083
H              4.141382814206425              4.433934374232193              2.442677011835579
H              4.163305957360716              4.80535838388336              3.094914236438115
H              2.3568938162560418              2.60103709375679              3.6816112381784256
H              2.8362412236445538              2.4123684457121533              4.226302939896541
H              2.6735586835207426              4.410953721226167              0.48682364869459926
H              3.0579589714038877              3.7801088109720204              0.3753522325723024
H              2.2592708188876616              1.2712499031124316              1.0308475287758059
H              1.516467137870616              1.1392641345367651              1.1104021944408813
H              0.12607990938843425              -1.2009124535650741              -2.0480312005818417
H              -0.5439866750009861              -0.9104799445573916              -1.726173802061655
H              4.673835601701112              2.4616959638832396              0.5126872237548936
H              5.108838625985163              2.3214820567711003              1.1535435879035956
H              3.79150641078817              4.563133557121984              2.487437740465664
H              4.05130851214425              4.809020269178807              3.1302571085760085
H              2.413413381015967              2.208124091973733              3.6855813316339545
H              3.0487373485308784              2.159776207194572              3.9925951937051907
H              2.525717280625028              4.386484664172677              0.3929807033417875
H              2.9485178572265234              3.793847517983995              0.4867949338299427
H              2.244052472374035              1.594702532718087              1.0878872912077433
H              1.5446510634513035              1.4012932712648702              1.1353477074543574
H              0.36851909981123443              -1.1842695006924988              -2.04425301420289
H              -0.17496299712564986              -0.7804793081134059              -1.5849896967297317
H              4.713343818374442              1.9656103848808701              0.6506954872725692
H              5.174201870834691              2.301071043225689              1.1438904660593445
H              3.697783756990522              4.486520833766852              2.5632482897071087
H              4.051809505592889              4.679768151270603              3.1470704929142816
H              2.4164040257888897              2.2772610781397797              3.71834707728397
H              3.0622914470111886              2.095171356968742              3.7713170615753295
H              2.7306081676319667              4.598266404376694              0.33406395086185514
H              2.940290482186985              3.8178912721920684              0.5500158154313232
H              2.1314759702378816              1.7078114670989581              1.1975254456027118
H              1.4611572462081746              1.5268723368194785              0.9697067015245038
H              0.3616768292391272              -0.9737960230222789              -1.8372494912984036
H              -0.13539209213204637              -0.6547441906804922              -1.5433509351655896
H              4.734564476285887              1.9745246734400637              0.8043476678240742
H              4.916283116853579              2.2294952592615203              1.4449394906260298
H              3.7290431105301445              4.633560467851027              2.627418520562213
H              4.282611619383993              4.850806151860867              3.0789445153873425
H              2.8363534971547253              2.6505273690269786              3.4314462004760533
H              3.1203850262091732              2.0892946017528433              3.7490742422755807
H              2.6610966335027344              4.517126332733129              0.347334825207431
H              3.213081496908467              4.043704071914899              0.40694529438857985
H              2.0477075264916844              1.5411910639119435              1.3290794054955681
H              1.7960643506534748              1.78806421292908              0.6409877853460082
H              0.3486125413401364              -1.0759701634727667              -1.9903368498088028
H              -0.1795258119745286              -0.9428728665841626              -1.62012642432479
H              4.720390956568279              2.0950144443042644              0.6888734155627196
H              4.8308959418317965              2.3623221656368503              1.3211577872977587
H              3.625609224140622              4.789954443695243              2.5438976063799985
H              4.203565350161474              4.83930806097821              3.0552450252069283
H              3.048195251890312              2.466672325184738              3.6507056661627075
H              2.857118941715029              1.8368046181183337              3.575671864650231
H              2.8858201591654944              4.657153077303113              0.32077882969998806
H              3.1298468558226014              4.001079515636995              0.3489109273857366
