72

H              2.213592414948838              1.730187329406804              0.22687841035959483
H              1.7336834846536122              1.7640629740700495              0.7758034722814371
H              -0.6592565939979764              0.1153476605414724              -1.7855221564833132
H              -0.19115306818722602              0.2562013027338856              -2.567595619732547
H              4.378768200098981              1.9590979196746023              0.958312781723363
H              4.337065464482129              2.5962244196363273              0.6441952741018558
H              4.193620437484408              4.3881540354725725              2.7346051735183488
H              3.898363475103538              4.209963898317704              3.434710524376599
H              2.947250967817969              1.0631165107332676              3.1645566492087447
H              2.9486626313269233              1.7648603701312282              3.4524355441214922
H              2.534777448518932              4.523540762292367              -0.04894139221075616
H              2.548484324720322              4.465815253547032              0.7224087439558358
H              1.8329646386377865              2.119109378958913              0.3496059684144032
H              1.927337389167672              1.6491408381929251              0.9890725771441329
H              -0.40963154325729406              0.07443227956386099              -1.8441401118903298
H              0.022977967410054752              0.45776493022806924              -2.2016647591954506
H              4.9384497206062745              2.233458644490525              0.7375622890587077
H              4.387618967411854              2.506113438314609              0.41771157359358757
H              4.251668718474866              4.62432028000076              2.690534824704113
H              4.004395283741932              4.146773469238725              3.1953840473670394
H              2.9509557151105987              1.1567209608858633              3.3320495974578295
H              3.045220277140545              1.8451209432231275              3.286524385458869
H              2.928641773250853              4.376801296832336              0.017388531511444386
H              2.6898886652728624              4.518940805360761              0.6957360856261994
H              2.149695812605553              1.964211555470693              0.4851255778116279
H              1.5125828696992711              1.7261907089307955              0.6766755111367272
H              -0.734880907180793              0.029675899034479453              -2.1760991363792397
H              -0.07716046083837315              0.2022761373327198              -2.0737656869009777
H              4.5669017292818825              2.0902548138528867              0.8284529091264152
H              4.624781264897653              2.5438400615715673              0.29629844391887883
H              3.8832239074715584              4.301654194946528              2.9268850240607254
H              4.038369699127032              4.5350553518262515              3.57988828130966
H              2.8066363360057536              1.6330955069368305              3.022649634334244
H              3.3430236873975008              2.012994755097071              3.3627408612180396
H              2.9318483861971867              4.557794843265598              -0.07099924538101704
H              2.611467356048321              4.2362911746004475              0.47116260331190035
H              2.3175698493904107              1.9478806275919862              0.2034962395681417
H              1.8296068418734146              1.7733925670832982              0.7033655265383403
H              -0.7144830505799072              -0.3951514429182087              -2.0862698286722243
H              -0.0726762770650567              0.04187385892946626              -2.3140155594665837
H              4.5020460775679725              2.0788537935355436              1.1765946641407157
H              4.575642179003072              2.4899619491968923              0.5541953371226873
H              3.964750542201208              4.416943374640688              2.8196385295240196
H              3.9834186942947976              4.493718891756322              3.5038741566862153
H              2.6739421100356866              1.3872985600687313              3.401021278848534
H              2.8772440269971544              2.0885524955435435              3.228225528827889
H              2.8616691011942166              4.644672675386359              0.10269562345911237
H              2.541851714444678              4.066017010406954              0.4452575711681592
H              2.096395137555968              1.9509274131496797              0.18808549672182046
H              1.9862300575453191              1.5406040640893743              0.7566133691240631
H              -0.833716542960165              -0.12967421339655544              -1.9631057162947332
H              -0.303315654418255              0.048511873721300246              -2.421239963255608
H              4.827993893326804              2.0043216332852016              0.865013655783636
H              4.573430900709153              2.5429103697852358              0.5370361589529546
H              4.062730298101817              4.683081828072343              2.6027452077423674
H              4.058850695083015              4.5096981800248335              3.3268137172033376
H              2.43278879335685              1.5406335011719654              3.370991625897275
H              3.224614324097021              1.7989386861565202              3.3337333369254716
H              2.776519011021088              4.5229459195761255              0.21080700783957199
H              2.2688064629434175              4.337546633024815              0.6659451386263461
H              2.0484995201241185              2.1640583849541555              0.08334433157340376
H              1.95203661215137              1.7761972428627668              0.6935161107963275
H              -0.9529923932327752              -0.03935693987361058              -1.9775519396493313
H              -0.4317254328531064              0.15041637239256747              -2.449519097893634
H              4.71306255899969              1.986664488042101              0.6465659387416371
H              4.452387348076418              2.5065084184781417              0.20719202587748486
H              3.886962066407136              4.606711928546049              2.6883013223204295
H              4.16611172337232              4.348618659867042              3.296291248544601
H              2.585109909629617              1.4759619430155877              3.4017739761541734
H              3.2137413372967223              1.5743871879421656              3.3324988967081604
H              2.6525696936250025              4.553678825146035              0.03200753991386083
H              2.2173442831100694              4.570637168135273              0.6460065227858907
