72

H              2.152893660386936              1.98541447022244              0.4013177536391418
H              1.8000558511226368              1.9535499799185936              1.0482327640525382
H              0.07178552487496494              -0.21944197466154544              -1.8443230023475121
H              0.223759349444614              0.3510867776930566              -2.389822754824958
H              5.49547455031271              2.457119685908408              1.1645264035474694
H              4.8375004017352055              2.3203285180553426              0.867281157292266
H              4.169398206601919              4.646603261752874              3.003513284927738
H              4.083702813302184              3.9166059972196274              2.6501502388375715
H              3.526855962753591              1.3026323108098545              3.1886990780136255
H              3.4269258660192974              2.0404198051430686              3.0982194269248566
H              3.0394464332520963              4.065800300136536              0.5753363046605487
H              2.6868511677654503              4.770126826248877              0.571505238657459
H              2.2742550389550873              1.6291307205575976              0.7127947782963687
H              1.5204360081593926              1.8694233586249156              0.7179053000960199
H              0.3307798728365183              -0.14998240364685703              -1.830299348733091
H              0.45050423359801545              0.4253202001817272              -2.1192190173304293
H              5.0744497199835745              2.324383498918342              1.2862984369379016
H              4.7714683150812895              2.423661302697228              0.7064675112469319
H              4.407033180769626              4.418423700712778              2.993974645935132
H              3.8300303531004336              3.9162690068285078              3.115729393962397
H              3.462323337496261              1.1902791616796664              3.220261297325036
H              3.412826725529604              1.9808717486681604              3.2958646532737146
H              3.035644942108186              4.174614722863841              0.2066842483437052
H              2.8796888161453813              4.408530962520582              0.8874185226933825
H              2.106473588005984              1.5701978410115276              0.8952743107334061
H              1.5661023892334525              1.9827594227868206              1.014642359240603
H              0.35218093093246605              -0.4148478626732178              -1.6363860510673456
H              0.4579465411240797              0.2778234446962379              -2.0067166677279484
H              5.431154577663445              2.420856187822353              1.5053671674533313
H              4.944348844557247              2.316545589359222              0.9213505339307471
H              4.490541244744907              4.59564849854278              3.065850929566148
H              4.065825909537208              4.021598216355695              2.95382754310725
H              3.368723252500334              1.459873313445084              3.266093424698768
H              3.2953943401937376              2.1744608226773003              3.007846264772164
H              3.3323731965424033              4.328363863536076              0.2625308111193816
H              3.0386753934300232              4.669188382779915              0.8594528573856087
H              2.3062368596398146              1.585044493933467              0.610629466527976
H              1.7637524778427942              1.7714979917577545              1.016781802670198
H              -0.103504132268979              -0.5706783567923398              -1.9328265255729984
H              0.0854729643150347              0.21351462648530364              -2.0882577297450275
H              5.494750363098124              2.5176202151867164              1.2757231633211017
H              4.920323698443792              2.2326389804231628              0.9203997770692453
H              3.933694640258444              4.791642777040544              2.9684937823967044
H              4.245793588346424              4.15561436084998              3.1784449146708376
H              2.834766747198318              2.157381870244482              3.045883712192811
H              3.6277635753876307              2.0803181899383687              2.8032942957268085
H              3.387114100702689              4.214470169248762              0.1281860823299373
H              2.851059435136188              4.526903381554845              0.6291193898772737
H              2.46201933319376              1.6316936007525416              0.6669553814824734
H              1.8478611629011634              2.0071580839782626              0.6325271439479274
H              -0.07205030210035318              -0.5874905671297187              -2.0394813150547075
H              -0.020768767802899307              0.0666696280182624              -2.322318190929994
H              5.39834748585506              2.4400092253308325              1.2756548144912816
H              5.141644792463627              2.1612877760396128              0.6691762806844557
H              3.9496263577148145              4.814006185611635              3.035325579055739
H              4.2128881607257975              4.136052301279747              2.9127057069364737
H              2.9724767148511924              1.5967344659577243              3.4255928704446883
H              3.2872142258949313              1.9856904160755169              2.9350376248415326
H              3.0958609552803242              4.238321933198887              0.39589899858529376
H              2.577472323827639              4.750384541173961              0.6635994311392339
H              2.452406641412101              1.584600269667582              0.5484151884206979
H              1.8267773066697306              1.7372546381281297              1.0023858312413152
H              0.12875514013434874              -0.3057394179557636              -1.7712813273670045
H              0.12097260499809886              0.15871478853955215              -2.3451844182937265
H              5.42582660071819              2.1925804230780703              1.245260046902149
H              4.858961518010851              2.4238970070123993              0.9115527431494903
H              4.26669418360664              4.549599955756194              3.2233369462101797
H              3.9772877633397163              4.128875680302968              2.630207949041187
H              3.341791575581252              1.5316909970882342              3.36435151896334
H              3.168356750362775              2.1536785077663785              2.985053165507868
H              2.8846052165844664              4.197423132421892              0.46928114025826806
H              2.5029510191088              4.850969766888585              0.5795032833059138
