72

H              0.6885413950667367              0.8389813257170987              -0.4424588901726266
H              1.1103031241147432              1.3444193332285823              -0.1020718823468433
H              -1.5219573679583134              -2.2057140028933446              -2.349846268399638
H              -2.107015375755207              -2.27575947281332              -1.763018363188932
H              3.5932083474685257              0.9442945745969843              1.1194731188678084
H              4.168137843001907              1.3908583728620447              1.2561557602565934
H              3.4510390842876597              4.044418915907183              2.564709269328856
H              3.938719113572239              4.044423908683944              3.170708500069801
H              1.4545227155800446              1.8467569143103035              2.689101368152014
H              1.8844860703947874              2.298558591087816              2.2630783337249905
H              2.558965362907712              4.047893203454521              0.29467022186997016
H              1.8490855901694467              3.8609870546982097              0.19535345967730075
H              0.6718400102147806              1.0291611374951333              -0.5113698705893841
H              1.3056033854915454              1.1444715439704471              -0.16120043705229356
H              -1.5664918234712457              -2.1047648040185085              -2.460994128692309
H              -1.9200078230275481              -2.327929036747897              -1.969082375772488
H              3.504903721052562              1.065158630783118              1.2584736396827496
H              4.202149121927236              1.1240402046210665              0.9597615236238005
H              3.6760591785499876              4.442178921226922              2.525034661934383
H              3.844566562866304              3.984776280360452              3.077447638270186
H              1.6767597012637816              1.8606380765626818              2.629615351983853
H              1.8661968085023843              2.503333747956458              2.269643768568446
H              2.3163949321254638              4.053687008078139              0.129470787843156
H              1.6776090051468313              4.201495272613913              0.46926987299035267
H              0.6101422725085445              1.2552237087842397              -0.46796135242761255
H              1.1258572817956158              0.6882103601951306              -0.3513134650268758
H              -1.3941565057859013              -1.8747718488880996              -2.3072377005773
H              -1.8720289008462527              -2.3308152523701424              -2.0840626441093786
H              3.958589422985847              0.8166492866780762              1.031084404710574
H              4.109450836155269              1.5576543834979728              1.183983015575994
H              3.73810004276976              4.165026443356913              2.5320993012687025
H              4.022269669194714              4.452731767957361              3.2092515614608192
H              1.4874430500655658              2.052929945133141              3.147097558653076
H              1.5165651385919474              2.132623640610786              2.37429132199428
H              2.4655537534802816              3.9418413620916852              0.03101367470713191
H              1.782155802753488              4.092451735754393              0.2829641670912902
H              0.7637659427520336              0.7616142234421575              -0.1567491932805309
H              1.2596316602546347              0.42692426645446735              -0.5829006648727663
H              -1.221652241167547              -2.038823724749282              -2.5870931953719163
H              -1.718772643557973              -2.1412659342124534              -1.9129017525966185
H              4.186406961709409              0.9498063811038274              1.12814429115365
H              4.373834713145663              1.6513492583899392              0.7931155474699685
H              3.7373261719129065              4.041373370894424              2.559902928163579
H              4.088435428492985              4.395646471516513              3.1133995306506734
H              1.7957246668242428              2.1205970846723288              2.9306847279719785
H              1.483630192284307              2.196588497463339              2.2615809337701283
H              2.6544029994433798              4.294012748785934              -0.02764442819505533
H              2.087179664399939              4.177343231870523              0.4407020921325591
H              0.7703469031320896              0.7158878575657054              0.075288464650894
H              1.1987090360563106              0.9348310361855512              -0.5063995404649287
H              -0.9818791516093429              -1.9399617511197136              -2.218318156079549
H              -1.5013452005301184              -2.0066120158783174              -1.6794434321330458
H              3.5842998155904944              1.0578735183206742              1.0572186793506444
H              3.997147485239515              1.6974162134014776              0.8826184156223985
H              3.9918516345497936              3.618364221943083              2.6129731127385485
H              4.070865572561138              4.01845634165752              3.1767417353530676
H              1.6769690501971144              2.2169563609962655              3.0113770427845985
H              1.6311459229536147              2.0953169262373357              2.2435822635366844
H              2.512151670004793              4.126514890004817              0.04244896916871172
H              2.1891358565380847              3.9186567801603402              0.6067087516175715
H              0.7462421885833657              0.7378944230790859              -0.1505625653859801
H              1.3880142276671945              1.146824905403204              -0.04419280661033898
H              -1.0590418642307922              -2.1477136064853855              -1.9853679350578017
H              -1.7521495315201432              -2.1771888678283737              -1.5430394252040622
H              3.5702597173485517              1.1921640207499906              1.2746357006612132
H              4.1657533873997545              1.6728252826946688              1.2949189660084948
H              3.8454551029510298              3.7829400161426827              2.5177837793869595
H              4.359287794377471              3.9765840478973518              3.0316771886056593
H              1.4407393924118073              2.064682267218049              2.752302457342629
H              1.9827186113938113              1.9965428733015629              2.293058029507554
H              2.7145288949047863              4.142723917813676              0.5978449322219374
H              2.097066982515329              3.908128816010913              0.316953756772121
