72

H              2.2150634994853275              1.553904387909814              0.8790851834128859
H              1.6850183146470563              1.8845203350767525              1.333792776668866
H              -0.1446465101438086              -1.116671654543353              -1.7740562448003745
H              -0.8130136727999147              -1.118526311023278              -1.6582142974212095
H              4.804538996813828              1.979048106420116              1.0931706503404122
H              5.066710790097237              2.636228627281717              0.9661716676305034
H              4.278081465133197              4.919575807485769              2.6156246503954805
H              4.285689427317604              4.706906036741801              3.32507305377918
H              2.2575921672687644              2.1236698389208786              3.814566365783428
H              2.860805454750307              2.213159870360395              3.313450793328332
H              2.977957166082002              4.336992801757042              0.39335881546138496
H              2.893728813901856              3.6313813478008368              0.6372471001817449
H              2.29537487048686              1.9831784140769788              1.2487031314336228
H              1.8022232748204396              1.9541198525279075              0.7356525252771797
H              -0.16531106404527976              -0.9986163065361187              -1.7764159159256858
H              -0.8856148136527067              -1.1733231735344776              -1.7872821800952556
H              4.621482570754864              2.154958148050004              1.2748617438878938
H              4.917292028982387              2.752060765672641              1.1493898027900706
H              4.202885570432686              5.009417583349619              2.379441354516889
H              4.252709815015788              4.789849593515271              3.0527325655864885
H              2.525831373668835              2.3593649226959292              3.8944550545840344
H              3.0003307139061466              2.352313983988133              3.349517037144586
H              2.8934714312268337              4.34614253173615              0.3594893142840576
H              3.042279847674272              3.6969669745631606              0.710060285665569
H              2.454645338898175              1.509125972535618              1.075903804068939
H              1.886931509161005              1.71904710233302              0.7048772492892922
H              -0.0781388699528027              -0.8955474659649686              -2.1290545010843345
H              -0.6973289081561279              -1.366097670896366              -1.9336120156752519
H              4.628775164783463              2.061388373220919              1.1824485427489677
H              4.949407735183601              2.747608503037291              1.3078731357865212
H              3.8144548073928077              5.113078748726992              2.430565232255719
H              4.188474121728168              4.637465515643458              2.8992313053650864
H              2.7359068666023547              2.34771320381548              3.5485306441717164
H              3.060087397125029              1.901182980994894              3.20466512135131
H              2.814383913516189              4.270482517356224              0.18548096734732566
H              2.7212049921041945              3.64197795833116              0.579573973088881
H              2.296146725511777              1.5468743187197351              1.0483397328253772
H              2.000456337382967              2.167410804139947              0.8460030393995032
H              0.2557545018240696              -1.1835247607891977              -1.942798276119844
H              -0.35800768139816735              -1.558308257539748              -2.1015973777693193
H              4.885931709323256              2.1238846410204704              1.2580625593225838
H              5.2681066400671055              2.802448705138725              1.2268985869499085
H              3.9204269507354486              4.826879188172336              2.5310547252921167
H              4.356729183039518              4.465205744217657              3.040960706139962
H              2.5305117621449718              2.248851428558587              3.550307396245981
H              3.081499337265847              1.8875556695880344              3.243645348455767
H              2.80781569883056              4.544148798878288              0.2864338697326402
H              2.7572250107584266              3.7847299981932254              0.39212347135059383
H              2.175479611417909              1.3798688324019395              1.0352038808023718
H              1.9367356432359009              2.050314112954362              0.9853038888776633
H              0.011918024908275949              -1.284025839748703              -1.639725106511434
H              -0.6124539001076786              -1.4479570532697486              -2.1072547113481623
H              5.0146714751572175              2.093939584699075              1.160397001101209
H              5.026373998731351              2.812054845753667              1.3763125406482057
H              4.317421367319707              4.634834221238845              2.557758103202449
H              4.442740240791986              4.581958704050694              3.2448264216766938
H              2.5422113569399962              2.3790301576742263              3.5392696344878942
H              2.9451864408052812              1.8442843696671969              3.674416353664918
H              2.692248527150696              4.494092808765599              0.22762086769493323
H              2.906338030224228              3.7989968240838268              0.20076803286666273
H              2.4381168344489725              1.5805318808607047              1.1183445994142533
H              1.7071306373766726              1.8886882643043772              1.1785380165749813
H              -0.23560613409662337              -1.33331140442469              -1.8806670567369252
H              -0.9073248668498115              -1.1958300809575921              -1.873930508895101
H              4.820168786925469              2.243260218846778              0.8657658760412771
H              5.107145928456879              2.606653438276654              1.3834030890668554
H              4.482742460805294              4.858933913114524              2.5077796761443425
H              4.388837604057547              4.728835421626412              3.2985445359924825
H              2.389762607766238              1.7395075897389618              3.8382231092108805
H              2.962471566705763              1.9005165063590939              3.3957460570966775
H              2.8683332618641293              4.498361102745121              0.25558377010796374
H              2.8473785609184237              3.806625358970433              0.5564689370921893
