72

H              2.3851673418904005              1.5752148224878364              1.0553755742703044
H              2.058176931680358              1.7848415330766534              0.49214341248509447
H              -0.368973138433334              -1.236985284817854              -1.8848656624543427
H              -0.7888956699648721              -1.8307203952259736              -2.351203815057463
H              5.008503638079015              2.150519374148023              1.699232149728088
H              5.1955606964178385              2.7937676403816396              1.2684085963873026
H              4.307866023926468              4.8545804761560865              2.651108871713951
H              4.13582032049912              4.175063788979844              2.832554311355625
H              2.686703621707617              2.037289906530388              3.7745395247296725
H              2.937914767931515              1.7945142865819093              3.180584827745241
H              2.984943369383322              4.4383649324933385              -0.062100985061464
H              2.83149539897251              3.9954913470115843              0.5111617522640941
H              2.1661079848873777              1.1438074687354214              0.9693682310299105
H              2.213674674229252              1.9083449174670581              0.8986185995711504
H              -0.36682555926919713              -1.2554462169269764              -1.8074305978606442
H              -0.8245589020087306              -1.6165074134516089              -2.234960558549576
H              5.022992727590129              2.2801947634272266              1.47202269048639
H              5.232033650606202              2.9843538635995555              1.334038773338653
H              4.540450580558681              4.797093397888356              2.519223702373914
H              4.544005447343919              4.3077089126088515              3.134523954509616
H              2.485813266140522              1.956228239608405              3.624704943810919
H              2.9948946200480497              2.1367696900578235              3.22573335981584
H              2.8678843483416787              4.491639106108163              0.18068736170568866
H              2.559925354086838              3.8452342805765047              0.5068773750634141
H              2.311499730235926              1.3695070576481696              0.9781155542238043
H              1.8195245544808767              1.8014493604863835              1.2628618728869911
H              -0.5682012645798756              -1.2881678132608978              -1.6479960703043137
H              -1.1437419451829338              -1.4364966446915257              -2.10236858608672
H              4.744153474367892              2.2373621749941974              0.992057992894404
H              5.075927090595437              2.945219110896274              0.9187714246845092
H              4.55672260825256              4.772547918913977              2.5992879712808454
H              4.476541811848346              4.521089200088111              3.269229595390084
H              2.758736090230931              1.7592974928392116              3.836756956278262
H              2.8108196410075252              2.2121659093357007              3.251623552084822
H              2.7980670409133057              4.669557863368222              0.32476019614383833
H              2.8340515004280618              3.936565526081462              0.3899502142261107
H              2.343839518210138              1.6065522720640752              0.7829626308852586
H              1.665662560113826              1.607200925936334              1.1118489704319632
H              -0.5240513821396493              -1.0831320428096634              -1.7959856387445003
H              -1.2134841818492712              -1.257911775133912              -2.1440966887622293
H              4.810029657291966              2.018190793554151              1.3487171144672834
H              5.159075714305778              2.654615533521033              1.0921696687793645
H              4.398364648506747              5.082029964832073              2.6300423836936764
H              4.292688775048408              4.453829372786069              3.0879647958634653
H              2.594404958327767              1.8492223713755913              3.9196811318026947
H              2.9079815849664348              1.9025440823532629              3.2943265215352677
H              2.8444244859764805              4.357092914826113              0.5193374740244846
H              3.0172690463434706              3.60679757113651              0.34585231666442956
H              2.33529831991602              1.513899469976262              0.9801959807849886
H              1.7897886896096649              2.0040090425902704              0.8889263259660373
H              -0.24366747923558493              -0.9404641590903196              -1.7990372411592699
H              -0.894459950768363              -1.2168320659595795              -1.93708795292208
H              4.573923685708475              2.3185864666839286              1.4880452626651053
H              5.059427547334434              2.759293066907106              1.0487356913000567
H              4.346931766301909              5.024678322506668              2.4681912613412744
H              4.55874788445828              4.476413544130452              3.01716179310611
H              2.835988075795135              1.8987659814311448              3.6072830687036412
H              3.1629883948121225              2.3419973623414885              3.1739525604452474
H              3.2175250617113806              4.425555231337563              0.6721389179259586
H              2.7425450006788377              3.9630762609566665              0.3821815086520079
H              2.183021428213643              1.425513544297374              0.8364817728620564
H              1.7743460032485883              2.009043929265642              0.8896898035647578
H              -0.3401087781923985              -0.9897459794192199              -1.6740511878280062
H              -0.9005588584828444              -1.43135084379829              -2.061562714343384
H              4.588053720756614              2.3037965715145146              1.4395019471715276
H              4.956186766570916              2.6593532206270525              0.9433645391894057
H              4.057349322875008              4.978006911829651              2.5859433692896525
H              4.375588229375015              4.424086246671648              2.8760454392263934
H              3.010871940025908              2.1678675620060166              3.6478731645236606
H              3.123041328175881              2.0307464695798814              2.9494550559107258
H              3.187278045707233              4.5353948466386615              0.3405965877682689
H              2.752292893432248              3.958414263093884              0.43986998802989896
