72

H              1.1011904495608256              1.0618568904791217              -0.42019367833435334
H              1.4058732259632274              1.142387057243902              0.18374812289062084
H              -1.6244464109521313              -1.3829556255482764              -2.2837355502928567
H              -1.910711461625856              -1.5897245793603763              -1.5155735243254744
H              3.373161902892346              1.4907585311447624              1.0826326821903445
H              4.051109920839337              1.8820590158441701              0.9371355636441987
H              3.969940847165673              4.582814776285387              2.6605328975132636
H              4.016379669047989              3.796714323744588              2.6037608199113267
H              1.4095600100907184              2.371944478358323              2.449560606075494
H              1.980449983854205              1.9134428367835217              2.5834345510754493
H              2.196722689188241              3.8316595583495583              0.7186095662108131
H              1.51200397995726              4.1576104708906945              0.7634602809187884
H              0.9881411854658486              0.8524606926009479              -0.6411372748602062
H              1.1869051866914753              1.1022818066213012              0.08581784447805248
H              -1.8418488213348903              -1.4979840234714399              -2.5654571588316415
H              -1.9740728454051208              -1.6044202770900158              -1.818825218869266
H              3.8766217282427156              1.3596239244993027              0.7589838733596368
H              4.228147467082527              1.825920136021822              1.2941770028622641
H              3.827561593238847              4.71708938314562              2.608123818922734
H              3.546776270500593              4.06817323839166              2.8770468265393885
H              1.073939814076511              2.3103681859470058              2.585386945254446
H              1.6416500300675394              1.9556962404529314              2.472138174134493
H              2.2118705190021952              3.9836807540606007              0.4291975585089575
H              1.4569977840123294              3.9949661196156554              0.5792024048010743
H              0.6679496380262028              0.643017178238511              -0.3438503966798053
H              1.2673879682530351              0.9124846050864287              -0.07421337169547151
H              -1.7224088633229175              -1.4081490408411474              -2.787536869687284
H              -1.4833521102432194              -1.5750846959554787              -2.0929149586624423
H              3.8713359904106865              1.2950236615999169              0.9840672410387048
H              4.387775907985139              1.9099293464943858              0.9173633017576498
H              4.109835114216951              4.79241772035447              2.7884832787967575
H              3.5124714508485386              4.260704264238218              2.728463565390957
H              1.1473787134612636              2.2634840959278884              2.7204423146691004
H              1.8256532110744759              2.09329464101022              2.4363731024741173
H              1.8094107851643144              3.8322205139465106              0.1409709629443846
H              1.7317073835296561              4.145692132387588              0.8062501181855171
H              0.699984039635678              0.6494165982513003              -0.43728452994521966
H              1.0947360326433908              1.1187227507781647              -0.01857969442437693
H              -1.4009918241432011              -1.1112193220135198              -2.453984700108453
H              -1.2708583703322973              -1.588780345497486              -1.782349524569356
H              3.886976555444259              1.4954306170468246              0.7088328632381808
H              3.9240116292501863              2.2009713191264035              0.7959203600787984
H              4.371410903409393              4.502383311073703              2.5274487468586377
H              3.81460200053175              4.196836017635565              2.9562121164142976
H              1.3263247807185048              2.435645428500054              2.923367729029503
H              1.637435052204008              1.8490127713264868              2.659532511266038
H              2.1169249864835233              3.9037122076346495              0.27724619721824756
H              1.71824486897794              4.159323901430132              0.8143287261065947
H              1.2638926257113543              0.7749886911759721              -0.6162824565723334
H              0.9622171713357154              0.7311752691717258              0.048684234023782476
H              -1.4743254982988985              -1.2525841465354552              -2.252596105021084
H              -1.442446782916833              -1.7725687077092884              -1.7861617670444765
H              4.028569198148619              1.5647628174355839              0.7331560859370257
H              4.312813330624107              2.126857845190788              1.1825614868272571
H              4.367892031594014              4.242444556466538              2.6060681832890613
H              3.820472736896202              3.950188215617186              3.042895138386802
H              1.1511523300454134              2.340820315778419              2.704163153364273
H              1.718802190799392              1.950782889276033              2.6292202212058924
H              2.4254171462587037              4.153831020630093              0.605368672619185
H              1.7431837420446326              4.092492053970081              0.7756770323364693
H              0.8383123612652997              0.7557203502947729              -0.3374294694933592
H              1.2232144082742291              1.3145509542513503              -0.0529996412613855
H              -1.5104729830733281              -1.4452537970988144              -2.2593379051852343
H              -1.4646865688191293              -1.5181272672115682              -1.5313952207993022
H              3.709964357405141              1.475583757212821              0.8259335503999259
H              4.207313729372434              1.9578724907796219              1.0663075273549605
H              4.190534188872044              4.278203995299687              2.6884084961441608
H              3.7541170582645624              3.6890244548218267              2.8436036935338858
H              1.3557005146902565              2.244091851421817              2.9934542669405357
H              1.4337795247963492              2.0478894228946958              2.2944511200222157
H              2.1403314132497986              4.072741657512832              0.4712004554494231
H              1.5989247662049642              3.942209294571951              0.9291060278111172
