72

H              1.7294824510921434              2.0291905801558223              0.21692004965241551
H              1.4563331476642076              1.453151773228795              0.5223260458386696
H              -1.068658512205066              -0.29085575374942496              -2.2078751275773905
H              -0.4308136181247204              -0.20723790329120728              -2.183909636684154
H              4.286217560521059              1.8546288059442786              0.9955707460607992
H              4.671710000706959              2.346709364321572              0.5740101321121759
H              3.611762547485835              4.211811086471487              2.7617949420035877
H              4.053624673786971              4.590307640714186              3.1984285517686146
H              2.2548711277100786              1.4121391681059317              3.1014133127403016
H              2.762137961686821              1.918686675376995              3.4587679529375444
H              2.549065261759149              4.465588595469305              0.3389658343370175
H              2.2147160961136385              3.9921838164342542              0.7744901382504719
H              1.748944614512808              1.9201931192832573              0.13175165444976983
H              1.5505344842367481              1.3506214964632712              0.518575572883948
H              -1.308539821272996              -0.22918415093962285              -2.0955354986084074
H              -0.5729324106317556              -0.07096738529793417              -2.36527824270504
H              4.672999814618993              1.8253295265965692              0.663854681277569
H              4.358003387730863              2.531272227407494              0.7031892185116667
H              3.489434459653462              4.3446314438920615              2.567562823670909
H              4.040164614088513              4.726562186879171              2.9017449701179174
H              2.2451906933769736              1.4086528812951362              3.15687316075711
H              2.677307619198622              1.9264884180259845              3.3839181900116677
H              2.599225754070144              4.196694442734433              0.4114227212373066
H              2.0273939207985823              4.1635096500454365              0.8539209624002086
H              1.5381274426964924              2.017835480765917              0.20136357040586245
H              1.5486966928474202              1.308475889729095              0.3660245442378389
H              -1.396790520870672              -0.004900312230289915              -2.2296092846923514
H              -0.7031583917884529              -0.09150852414854103              -2.5589584247801325
H              4.508314758065354              1.8197340574894572              0.6736362874690043
H              4.4611398833645834              2.540683540443081              0.35305646032508675
H              3.500587415810799              4.39271480432059              2.5614768613147216
H              4.1157335129887125              4.580755186448806              3.011107725072361
H              2.2580052472680436              1.4220003199621398              2.8727745499401385
H              2.8877009999548373              1.7676208636744868              3.235670719588365
H              2.5149719883378263              4.414052773382615              0.32085469256416327
H              1.9642707612765484              4.531204527863423              0.8584277556292125
H              1.7772002341860884              1.697663321999667              0.221050112963271
H              1.6024183266205485              1.1474686679684396              0.7707947985333887
H              -0.8813950072372819              0.0825142717290241              -1.9286889004213859
H              -0.4226083259200763              0.14015080778148425              -2.4143638775063874
H              4.1061931193660595              1.8462151852627129              0.6381118741065767
H              4.2779952840672735              2.5940876382117164              0.6743996674715649
H              3.904416478818961              4.10442815481556              2.567292511983877
H              3.893441301404167              4.4045866171207475              3.283118140400642
H              2.19178940717998              1.5232502713235454              2.901158542494708
H              2.9113808028100916              1.6102988611954043              3.0840466312751866
H              2.251886903275381              4.405180858755136              0.21532108179026938
H              2.413291950336923              4.223467617075992              0.9105376375513275
H              1.5951279796478848              1.6699254310319835              0.37378293232564064
H              1.4805964977832797              1.422682543965933              1.04135695972507
H              -0.9239220921457317              0.07000599234891397              -1.9692169687513312
H              -0.2045574211188638              0.1702082129155026              -2.217368334152535
H              4.845934231500115              1.8602783914844703              0.6687034286861233
H              4.627375743303322              2.575623249913686              0.41750303500948505
H              3.9623356441167337              4.1961740641949286              2.52697296167844
H              3.9957185799186807              4.512021266597454              3.210850633150717
H              2.5498673410866077              1.3261552100654384              2.822060204987901
H              2.7500560150670523              1.9024789232821888              3.1493955581758883
H              2.702604436069913              4.114336666310436              0.2710836802055258
H              2.409852701033437              4.54104769553028              0.8160141342235646
H              1.713012204660593              1.99665883768546              0.27569616067024905
H              1.466247200613275              1.4073011989372506              0.6756134263412964
H              -1.0698912727555794              -0.04823031025637688              -2.305667158579181
H              -0.34066163527978266              0.052069135176996864              -2.0015627628079424
H              4.432970512063282              1.8512029808833297              0.5839817427233897
H              4.659317999659436              2.435000697969086              0.19511456465192223
H              3.556881885963055              3.991261609256847              3.002359774316584
H              3.960204798568577              4.616410613477499              3.2389122826176204
H              2.5356952679967204              1.654720318574591              2.777973590910772
H              2.6689395883224147              1.992082566653434              3.390480831132631
H              2.753718607835438              4.192316047506762              0.14362262541729598
H              2.2025073654566882              3.976719638243015              0.5627487358946199
