72

H              2.3781326833735874              1.737542412283371              1.0517713126254074
H              1.7513429104760274              1.5689610933909068              0.6646130632327633
H              0.9409707313160208              -0.6899388889234974              -1.811105284736926
H              0.776341620984554              0.07798361600975849              -1.8394756937930647
H              5.184606518608406              2.483447063364551              1.1383364502901627
H              4.862465061238818              1.91662246555315              0.851213789185193
H              4.01152353638883              4.454833558689987              3.257494055563658
H              4.305464961202336              4.46430849102844              2.539936479589533
H              3.59983529926243              1.2827060584867247              3.471183321558073
H              3.099159083520962              1.8921682150748829              3.4049375236875887
H              2.483862546050795              3.9474048512872306              0.6006471279434357
H              2.752488170203711              4.591777037778512              0.4240375311462959
H              2.032713316404481              1.5355443484439382              0.9521695956317487
H              1.51279647967894              2.028457852554906              0.7232651921127546
H              0.7270785388008736              -0.6781699179380665              -1.6981807105712956
H              0.8554051762264202              -0.05274987088581112              -1.8721037866343804
H              5.075795392290231              2.517743139219833              1.3215350000441082
H              4.88951451066108              1.8078047452207762              1.29008880063258
H              3.986058621220791              4.782718937975029              3.236344341503761
H              4.400194373477931              4.317841623533994              2.813844567464878
H              3.6513564482906102              1.1501163482724832              3.640783622309091
H              3.2259566005462683              1.6602215428011877              3.406149807264068
H              2.9203500157343134              3.964513061983064              0.4937112890179393
H              2.9495050804595606              4.63874242982286              0.31046845902680287
H              2.2375784128892517              1.179891254311804              0.9139925764945708
H              1.7131005233221388              1.75637420843005              0.9184182633933837
H              0.9205921675809899              -0.8294779517948799              -1.814694910773186
H              0.615254947922013              -0.0852880126987092              -1.7707034133167132
H              5.128293915631493              2.5450913499140526              1.2118069026462777
H              4.831070144145777              1.9749587428315827              1.673294570525476
H              4.028284728636505              4.9112287329705575              3.1837234619154047
H              4.5045848985817045              4.400811734850453              2.976442218011593
H              3.421193330167289              1.1953293695339686              3.4909701242723217
H              2.934724512690048              1.7246630659934346              3.2984332680937127
H              3.3265668757444073              3.8974994269347194              0.4301624921702505
H              2.9941529354924734              4.51473469318469              0.34663477476361243
H              2.1057455859631933              1.5208614740496111              1.2972792184667647
H              1.748803393869385              1.6685192381256786              0.7235579390894822
H              0.8371696762871332              -0.8907084059926408              -1.626597734643804
H              0.39593035535836996              -0.2576422410791574              -1.7859475781819396
H              5.368452438085472              2.6159086562160296              1.2232801851438657
H              5.288301170512599              1.8721284519722554              1.1458415919327694
H              4.01003474370301              4.884575087841892              3.2527062137153253
H              4.528353763021028              4.622187089377165              2.773407891956455
H              3.2055035278078945              1.4694093158861319              3.1660881550923974
H              2.982683347932692              2.020562083633815              3.5270339998457585
H              3.1991514428323224              4.0497623499664215              0.7345647737553067
H              2.8487011353419667              4.699339858027841              0.5059785221703144
H              2.536082658223888              1.3071606082094342              0.7023045963547491
H              1.9842832539546216              1.8149346492764071              0.9289068583641842
H              0.6522036680391062              -0.9320214617170365              -1.921009313366062
H              0.12984760249898633              -0.42838547015261647              -1.8798969624328858
H              5.067518315161307              2.5490237923871484              1.0847854082176027
H              5.108696839974058              1.8605638370746034              1.40478419717152
H              3.7106685157476957              4.709685057203888              3.124076582658183
H              4.413614798181447              4.623316002178753              2.984262038170341
H              3.269608601549881              1.5887920145755074              3.2540816673925828
H              2.894777153222992              2.2086194612683596              3.3155286298738056
H              3.0080554468929526              4.073967988951361              0.6178165273675283
H              2.620274012595662              4.374611243123485              0.07245233232727054
H              2.6488821662098556              1.5164050611353066              0.8832581493389831
H              1.9504438593564193              1.62706162945993              0.7275920252247597
H              0.6441463716151681              -0.8624478351835573              -2.162447052253858
H              0.3728411378465699              -0.19318443440814922              -2.118348052243455
H              5.160733606459949              2.5852706902781537              1.310969616427294
H              5.155377076512656              1.9288833380235677              1.3931654589826512
H              3.7400269045751258              4.704127731833188              2.9450255269945815
H              4.4748891278302              4.627706413555928              2.7641440937942865
H              3.09370866583488              1.2764520425175165              3.0585010672506887
H              3.2359485113968987              1.7546663000615847              3.5536977162546606
H              2.63140659855635              4.0030477612940265              0.7859909808865747
H              2.6128608879232673              4.4538613121361985              0.1813737793111191
