72

H              1.1334328558875855              0.542638975754962              -0.5271055988154438
H              1.5253271978905296              0.8856757690349664              0.06656529519954076
H              -1.1152211573513973              -2.6875756799424932              -2.057539281451022
H              -1.7558652485936435              -2.949450665432926              -2.0904798210828077
H              3.922887172517918              1.0497412045921868              1.5298612400171572
H              4.642851734593463              1.2440236637735256              1.547734142715288
H              3.714827833557528              3.5141026355909983              3.233999177730397
H              4.201959799870936              4.04076337492836              3.0348679618904857
H              1.3958237574980765              1.9212895968003805              2.1894322107944078
H              0.8805371035360056              2.3934465979066473              2.4514076004604446
H              2.6569542683358742              3.8639990566680193              0.012044475916911173
H              2.0752291009867836              3.669006213823592              0.3817833489518464
H              0.9387485218605865              0.9609814124774928              -0.5545247082610226
H              1.4231887236691179              0.6387422517894786              -0.08877351781575167
H              -1.4226550115033882              -2.345048355562117              -2.210860438873364
H              -1.7738175048493303              -3.0346682139999017              -2.315201115570241
H              3.7655212125230357              1.1080290355770543              1.515141889329221
H              4.447554651291173              1.2361399766992938              1.1880989748192963
H              3.6333112205718323              3.817750994997596              3.2007020766161145
H              4.165185298340024              4.308058574953548              2.9365148797911242
H              1.749495992149723              2.006455519655168              2.6209163979718157
H              1.133660680954607              2.5549267463166694              2.4201242660790108
H              2.6322404880511887              3.573817246207567              -0.004822106930223564
H              1.8814813230799294              3.581660368638849              0.013312485201845619
H              1.0775822721585828              0.3464112083092411              -0.50311052936355
H              1.1418215698364904              1.0288159624094635              -0.22562199885001644
H              -1.2164767989557612              -2.4396499555350504              -2.4125920658415025
H              -1.9199109412515096              -2.81746813582949              -2.3642602678072895
H              4.033592347984823              1.2936079601827966              1.43490749179944
H              4.551798622189906              1.472380876918757              0.9530957814335941
H              3.60657035054866              3.9473857864597277              3.2153339831555345
H              4.223830515789428              4.186006352369973              2.8956736012531503
H              1.7746060658306613              2.269599655749708              2.265418768034901
H              1.19170665210754              2.466144669748962              2.5551486667763204
H              2.825256207808681              3.9568185572835044              -0.11864530923110396
H              2.180124860561464              3.772236539690412              0.21226296477546036
H              1.182752307831032              0.6874843250882992              -0.6866081528389852
H              1.0432332235704258              1.0404838894810393              -0.062031782608415055
H              -0.8559890875641849              -2.396214870011501              -2.2382709882720904
H              -1.4969219967320453              -2.741159937396743              -2.3230432952775457
H              4.210124565198423              1.056439288767617              1.6236453975464056
H              4.556819127775022              1.5332909229919223              1.0170648250730399
H              3.963225276111087              3.4434333492039144              3.307193912621044
H              4.046295472085927              4.1201133282476565              3.0433316547838807
H              1.3726386481833934              2.359631271591506              2.850178574498159
H              1.1550769301857635              2.508190284605405              2.139774513066195
H              2.806194322182031              3.8605504636183463              -0.12175352670628248
H              2.301498534435993              3.5650758592870107              0.3297142872970431
H              1.116351506726338              0.6801682051939029              -0.6313603984708976
H              1.4212883934034053              1.128445249754758              -0.13063970773860661
H              -0.6496994358178207              -2.576803304505451              -1.9299993883571858
H              -1.427039360737126              -2.4527189663965525              -2.081732066524788
H              4.022309728812065              1.298986374107052              1.6204304019297295
H              4.209932191244635              1.5672360514220172              0.9553356686371262
H              4.129561244034339              3.7225067131557883              3.35818582625952
H              4.437482254618302              3.827335874138524              2.6312121673201703
H              1.785148316654539              2.356373165687681              2.6546177409098424
H              1.3054807834574937              2.324066159444987              2.057905786322197
H              3.042486473472065              3.8507195309157853              0.23830640695726032
H              2.3428695679575204              3.5958129409755992              0.3580554379102466
H              0.9891089472530351              0.7469939002646281              -0.5201432343390501
H              1.1789968103235142              1.3215149683092278              -0.13534773830535057
H              -1.0166299322764298              -2.671464891905496              -1.8594620898834324
H              -1.7685104374910932              -2.5569566003924367              -2.1352252320741583
H              3.581919300136303              1.3658438741592207              1.4132888030917075
H              4.295913040183579              1.3199767344554476              1.188790074194493
H              3.96650396606267              3.5714371171215604              3.3996185930856138
H              4.434780389331557              3.8123655377347396              2.936962621683395
H              1.5412944753277684              1.9415690597815816              2.555528682309969
H              0.9968171549445397              2.281099678224576              2.1883518171064664
H              2.997791585107051              3.686328064873868              0.046736640075959554
H              2.339549435997691              3.6389417253880363              0.39820951770731916
