72

H              2.1890205028564833              1.7926767243210382              0.4132265480966511
H              1.9039205672593926              2.066624574072155              1.0236187233338738
H              0.1472381883964229              -0.3218646019650681              -1.813948291518052
H              0.11226701688933222              0.20889708866937834              -2.2362951458575995
H              5.267287913781204              2.4405518250813762              1.3845961779081088
H              4.766204377637385              2.0967639993561513              1.0808260475456215
H              4.067250343114493              4.486261942275198              3.184799591519533
H              4.024034084374561              3.8753706465862803              2.654565982040783
H              3.3530153160220295              1.2320315680903617              3.3071132102065555
H              3.3576746381953044              1.9806783158624472              3.167504335790644
H              3.035498139316841              4.079819591891064              0.6133038368549675
H              2.712776512929826              4.7013089572424835              0.32801056244303867
H              2.1651141757841796              1.7374458295665627              0.7126477900918996
H              1.3719119912033342              1.7360448980103473              0.8228096470056357
H              0.45925054550666905              -0.188242482955694              -1.7993264050345101
H              0.3440644575221945              0.4266483134024632              -2.0895576097037334
H              5.3977285126245125              2.3857355652659007              1.3951618330563533
H              4.827683960710362              2.232743827465113              0.8565701287133443
H              4.33222648577026              4.704570200961016              3.025469237505393
H              3.958244828201241              4.1043176200019085              2.7679375450000827
H              3.4426928631977645              1.09669764943461              3.16574554793458
H              3.4278488778160034              1.9059905019925976              3.273198843146284
H              2.9926333407166408              4.18963915926446              0.410563386625932
H              2.931902451220697              4.731182534306666              0.8863569533536347
H              2.1145321958528562              1.6797837056985714              0.7158609758324238
H              1.4655749221624954              1.9556933075144878              0.820035407654701
H              0.4077729297269582              -0.46693980869711027              -1.8766534467977913
H              0.44633117341698353              0.31678322191683106              -1.958922158870122
H              5.520184758661548              2.439029710749783              1.2611296802147287
H              4.914018236762038              2.314068167744504              0.8602595690142859
H              4.227697068651674              4.8532737296939406              2.990636129219942
H              4.031563800876317              4.159109014863268              2.934278772500681
H              3.5449592764174547              1.4491004982364046              3.130484001417929
H              3.2814653398153313              2.173568709090363              3.112407399970707
H              3.275738095719938              4.239004038323011              0.32667788502619594
H              3.0443736124708156              4.775601838643547              0.7737235751938409
H              2.3837767424458876              1.3478394906212743              0.7250975262399916
H              1.7112510393434441              1.6365589538172545              0.7678617273667229
H              0.09532367066744012              -0.6637273627237394              -2.1427965121732164
H              0.3180898898152055              0.1008593864242344              -2.2588988394555916
H              5.52923640302871              2.5445148596786518              1.634550982030375
H              4.9338495007053265              2.2952998798951785              1.1495780779803102
H              4.1087140176755454              4.876935611257852              2.9261351286745345
H              4.110729100572756              4.194530111098673              3.202803951879516
H              2.8236685844134737              1.8526364240472442              3.0205030066726057
H              3.6156000014891285              2.00165778007557              2.8889556314910116
H              3.4551511833469757              4.157909298103429              0.3834959318911506
H              2.807601204966132              4.560484189298152              0.46928980924049035
H              2.5199944823858327              1.5392195944330263              0.6833016528713902
H              1.9318404087860872              1.8060334868583312              1.028871340189434
H              0.2223255086436852              -0.5281517884349699              -1.8880557275518404
H              0.21115616803421808              0.04130563353774823              -2.258147792368036
H              5.630933109885412              2.5517680402523637              1.190627449269496
H              5.1710486906455975              2.237953555510079              0.7347200185853894
H              4.168802628847893              4.665241394975822              3.0605455006994267
H              4.328145932850628              4.068133988875885              2.675456781314644
H              3.0958739200276724              1.8192743977158976              3.459636388451433
H              3.1626766017566417              1.8878019575751888              2.7925456669717614
H              3.1747789717871235              4.1672238692404              0.43014611353219023
H              2.6916198678227405              4.558605497047817              0.8687775872334801
H              2.2926311801575023              1.5118068924629615              0.8717621291851104
H              1.7035220551582906              2.0476063170988117              0.901830241807475
H              -0.0794670754964474              -0.26389489113446274              -1.581458289419713
H              0.159041026021984              0.07199213998602323              -2.220383804080154
H              5.450952672745016              2.1558730320334223              1.225619880510666
H              5.162292188867029              2.3696094110593235              0.5835732654390293
H              4.189361386294636              4.476942212041058              3.2367983508602425
H              4.053575306650909              3.8908943161274188              2.7558811962396295
H              3.4007567655047892              1.5410154182881832              3.29418049266565
H              3.3121587155219427              2.25664007653663              3.0943592037792325
H              2.8420965420276816              4.1808188159656225              0.35865086985477207
H              2.5773435193917202              4.739859065094248              0.757483014591148
