72

H              1.4588191131578254              1.5823658803404947              0.1610615461339349
H              1.5178135258736265              1.1072239864222062              0.7460675178998936
H              -1.4525623681950857              0.005868602991611358              -2.0047481078084237
H              -0.5870310565576844              0.012315142907676664              -2.06733509690886
H              4.191877176826561              1.7782770756923696              0.4377965824204717
H              4.263881552864341              2.452472392442013              0.43241822972414085
H              3.6785488692133086              3.991207333599625              2.544653304845613
H              4.055151212363164              4.508026121949167              2.8782157365418706
H              2.0312910060874065              1.778891873047659              2.7166021074359565
H              2.6186861060430004              1.565943117570884              3.0603656671298753
H              2.09293362944869              4.0901688219054675              0.3609648772126792
H              2.054841860115438              4.477218406506898              0.9711217303520489
H              1.579306696519698              1.5238468703155759              0.2737852078142132
H              1.1190494792370693              1.1529848126386195              0.8154210894769859
H              -1.3545838650528204              -0.07899475889690102              -2.276374105213477
H              -0.6713943911170438              -0.17263542689558298              -2.1559258544376245
H              4.254778202926851              1.7784283546247268              0.7015534437122078
H              4.723677146337341              2.3505369727175593              0.622137183557551
H              3.529018700941403              3.9477822543839287              3.0070603843011456
H              3.8993900402149477              4.601977416064305              2.910949992076197
H              2.2634441813527304              2.1269252227898523              2.36050968670038
H              2.4417960586550325              1.616408783797825              2.8709192715076095
H              2.399816090263077              4.124325894184788              0.1571901363394908
H              2.107727343547433              4.3381830362267975              0.8090259048560198
H              1.6479750748582862              1.7445271202197452              0.09109731738645149
H              1.2466076028628494              1.2598591571576767              0.5220976018475254
H              -1.1070423058176768              -0.3591569872399276              -2.3395593054073904
H              -0.42199573189269              -0.050893892141222086              -2.239011173927817
H              4.451599009471242              1.7820286578332976              0.7507735390763751
H              4.691715497614174              2.3624417502704773              0.5128993989863416
H              3.5353791032762607              4.041270271370378              2.9009328703059474
H              3.830781917628087              4.642135273525465              2.936989479862997
H              2.0936956291876485              1.844187202892167              2.5101187670213876
H              2.2999974416653246              1.9512907444708074              3.1739523596436485
H              2.4283652381745              3.9098104142527776              0.17640773827516068
H              2.024501244641807              3.8612023770689974              0.7532875042484224
H              1.5172982427553938              1.878213205036718              0.2060891773811443
H              1.2801379588525288              1.2346718483480048              0.3403259435007449
H              -1.313924757015798              -0.25497654588289875              -2.3667262466995544
H              -0.5238442931112054              -0.34701074969187934              -2.1021244919414377
H              4.404625452872832              1.7353593051689353              0.6810028641918383
H              4.617449379389522              2.404827509287441              0.4458851557318302
H              3.5533650392455067              4.242625798727094              2.9118102593582393
H              4.098074086758831              4.70773001723919              2.684714956735704
H              2.400882116407701              1.674348673433537              2.708323189807394
H              2.3467039698463616              2.064407571069963              3.2843289979661456
H              2.49927683114612              4.0691633976747035              0.558313048450694
H              1.8046109272458546              4.186356691759917              0.7182570430915745
H              1.5260163018970734              1.9407587727985722              0.014353679325698261
H              1.2458572552894076              1.2245101461403527              0.29337197113159463
H              -1.5197800983833238              -0.2929982978513055              -2.2882908287575794
H              -0.8313422971451015              -0.4923699272737924              -2.2555089815139024
H              4.3054826353943625              1.7596323698657352              0.611864366891364
H              4.540615549756271              2.411338425703028              0.8256581420110137
H              3.4275175606865447              4.177187788297342              3.0163548188785145
H              3.956744343116558              4.503751693582928              2.617657640523795
H              1.977040343250783              1.6335695055458423              2.686588847115263
H              2.3450730580746937              2.0983123475599035              3.1717467105573838
H              2.3748931839186405              4.258338868335841              0.5415108334671994
H              1.745363863472236              3.9457000044261137              0.8292146354553643
H              1.3983811650742057              1.7143718709537639              0.04213389547490719
H              1.5390810283702308              1.1055244889927323              0.44104316759264983
H              -1.4299679810680352              -0.18111348858962148              -2.1371473127366207
H              -0.8536229987094921              -0.2945894473773069              -2.4473177516481246
H              4.316561458052533              1.7232065073671388              0.7984409634354692
H              4.4822590232987345              2.4603241454102607              0.7453312907228274
H              3.640331066480802              4.0651262686802845              2.488932185298972
H              4.04109227894077              4.529301106424686              2.8807754382548354
H              1.9590128474519777              1.3567036547970535              2.754930395673379
H              2.4172299367195924              1.9451499950022952              3.0806616012662538
H              2.0918287722140336              4.070867582175241              0.478399996677213
H              1.8622511756725122              4.3293847539252965              1.1179966598431337
