72

H              2.099867030422793              2.2474094065689076              0.31737748808705213
H              1.9237414672239248              2.092417804537623              0.9473367778607089
H              -0.6802633022402927              -0.19101509985870868              -1.811673678713879
H              -0.24377308809644951              0.2523816794961124              -2.0853004442900063
H              5.126889946481449              2.274571117388474              0.8116707710113287
H              4.653160702929475              2.22599416956916              0.34333533936573835
H              3.970226227100785              4.739928760516122              2.94355423871956
H              4.2440730740127846              4.111475287521828              3.2245915401218523
H              2.7152276097809005              1.8382759334713554              3.48064969934412
H              3.4050791128288806              1.770172086126386              3.2521464964883875
H              3.002254721149511              4.3416615113071675              0.019150451783707678
H              2.6139700790455085              4.576649865250448              0.5821338182459229
H              2.3872443008589075              1.8983215784568113              0.32352278872809
H              1.6841111196514005              2.0126982758332064              0.3440964224172984
H              -0.7309340851467642              -0.28256398266478044              -2.1300604273146386
H              -0.2767320398478816              0.2826189108298305              -2.3599359954686605
H              4.568822185010349              2.102556364781697              1.20674530203973
H              4.362491689871628              2.417667924097129              0.5552943062391367
H              3.810156057526903              4.70163859308057              2.8854583704807157
H              3.969554399186223              4.300523981046254              3.427739749518437
H              2.7479125285063124              1.655769235408026              3.3064658315562148
H              3.4127689840524478              1.797099745219579              3.4014474017070153
H              2.8000517262341766              4.424295122171264              -0.09095885897471279
H              2.4520942879420384              4.618381820039992              0.553505909280834
H              2.2764413180796637              1.9787193016337314              0.15794721170948975
H              1.9703306368718518              1.7018857034762538              0.7471845659284214
H              -0.25646245073099344              -0.2730132365666267              -2.0112197361894237
H              -0.021818856817599395              0.33291670884999586              -2.594356648778895
H              4.949403860314946              2.2993841831151407              1.1255976947428028
H              4.331375707318931              2.5123843653652087              0.8670312802450888
H              4.226689534458089              4.97721478302418              2.7815282436173536
H              3.9627049143359176              4.270696396877617              2.936346425776138
H              3.0055402207603144              1.1856847107156254              3.4464568738971937
H              3.069963726541462              1.9286227505717486              3.0805912502202273
H              2.9956289350166676              4.48449901638005              0.14607145914026337
H              2.4920428512555857              4.794616662986954              0.6263456708610359
H              2.204001249721953              1.9619831147044384              0.35673339477801513
H              1.9172754584089704              1.4489817661337845              0.8570274569319448
H              -0.3703167871931785              0.061897004145537726              -2.0629586966159166
H              0.11299358896501845              0.36023610680346474              -2.4361842708116663
H              5.064430253450102              2.206790462444779              0.719843959611813
H              4.59835827844259              2.706679322739483              0.481657481707955
H              4.27111921168507              4.698478128290387              2.720520904211128
H              4.021035769521379              4.3374213687635255              3.311737281020426
H              3.0495031708928226              1.445347044861223              3.0692676608272
H              3.405213737119142              2.0368172917886755              3.0993896519698447
H              2.98596974556787              4.557991387628243              0.049027081608043734
H              2.511605579774655              4.428966691358202              0.645937649557292
H              2.377483726764316              1.8258770613271351              0.41108713919481327
H              1.9283543428485836              1.9317524854728638              0.9363141081636783
H              -0.37912048181956753              -0.08775725283839154              -1.8400377454854366
H              0.22764325950213476              0.20278174180647662              -2.3344989839227974
H              4.717711693293815              2.189399629446439              0.9434914931295271
H              4.748874132290743              2.565009396439044              0.31733226638056317
H              4.382104076717125              4.272686282201059              2.894468516238834
H              4.007203772052976              4.094636915698446              3.538369523609237
H              3.1730117626360705              1.3016019912864065              3.3055417964894627
H              3.0810263765745076              2.0336143257996477              3.160504107239017
H              2.8939135750905733              4.655171036053409              -0.003393348344344996
H              2.666092575177379              4.180481559848148              0.5611756336840525
H              2.356819618234293              1.5996694961068154              0.5453235678601989
H              1.940455496999084              1.9226503281156828              1.1559229965624038
H              -0.31852164609147576              -0.04677899719412577              -1.5366866208808134
H              0.06269746196859889              0.1698924754987522              -2.1667689567835944
H              4.779823034212751              2.0534972846820914              1.0839904617126177
H              4.690220580850012              2.539101451580426              0.6147490568956008
H              4.531759875811402              4.280285544092355              3.043256395624162
H              3.9769222189464153              4.074274412656967              3.453137796806813
H              2.9453461779109906              1.3994165941585415              3.3411588919820288
H              3.1348218590700663              2.117850762718053              3.2877462568592497
H              2.818929233320178              4.5383554497122365              0.0005607416437220388
H              2.7883933785090824              4.1864025556790905              0.6119471592226045
