72

H              2.372326943728629              1.4214588605091907              0.6804792433727459
H              1.724448584337126              1.7871210549523298              0.6181882096295309
H              0.7850086910619024              -0.8896666652313358              -2.2132881027186655
H              0.7265488537692608              -0.12925714305209102              -2.1401527824366333
H              5.445075475697865              2.675663168019572              1.487080896624201
H              5.062256608543472              2.070639088952011              1.4239880209265663
H              3.9535967110651655              4.996310235660219              3.0198305733263537
H              4.353401021793914              4.338490690788101              2.772882233265193
H              3.022222783407244              1.102895996407024              3.580668498811515
H              3.388622426320915              1.7070931059353796              3.1967172271641244
H              3.197431128019674              3.968705908981987              0.7797762170472777
H              2.818709799168081              4.473839866200744              0.29142703969062744
H              2.3982200451548294              1.3223642629845933              1.0799214751524115
H              1.6580838977804737              1.5254306181700732              0.8364287439993505
H              0.7330841315950619              -0.6820055091686504              -1.7249645678584897
H              0.7062029163940157              -0.043976557689400286              -2.0380873490533293
H              5.551100897643123              2.6488885940835654              1.4256172496923278
H              5.07851684591953              2.149946558318351              1.151894985260234
H              4.2421531486416315              4.636315816325603              3.2329230930057915
H              4.5067805854617475              4.194558143676051              2.6148107715531004
H              3.2489741429904564              1.3127868474601287              3.6386350942555326
H              3.242087605720687              1.9134219363724363              3.0443397159162955
H              3.1151500262727865              3.868146711617663              0.5104629699305808
H              2.773254383245799              4.471901768528312              0.742329797027826
H              2.024554568859503              1.515005196739099              1.1149462204276632
H              1.8788569413653455              2.117233157405403              0.8555327125208124
H              0.38161787106093              -0.6930417440175363              -1.4784862173118773
H              0.4552403489475908              -0.11488399166709823              -1.9064536549763054
H              5.195772065326566              2.600829974009078              1.1363489664947874
H              5.2259226869904225              1.8799037134645575              0.8930759970651245
H              3.997327376462928              4.37364178939788              3.2438528026540836
H              4.486606518877275              4.250159813285842              2.7314370816488487
H              3.558626263031436              1.3345077002599925              3.5256360306555337
H              3.038090379583211              1.8291133583019146              3.321646390818975
H              3.040800686824025              3.9340643313693366              0.6289259617283203
H              2.779483495175858              4.623326466785854              0.5358042024766876
H              2.1785916526691502              1.2567672032208026              0.7821512909189002
H              1.8460754384043871              1.8373920963012607              1.0088750977350365
H              0.5291723548740495              -0.7788234088777959              -1.6437824816157294
H              0.20308507253191743              -0.01108845375675737              -1.9640469112778944
H              5.080481618231728              2.44970672044428              1.4304041839910948
H              5.022819840858416              1.6644991162318623              1.3784527546392518
H              3.8655320105975877              4.6528770978654395              3.345332536625574
H              4.258709252933518              4.2765965547562645              2.862259840945242
H              3.2502722552272703              1.1156234023142086              3.30900287910119
H              3.0853717025104523              1.9037294608650355              3.3661914076779014
H              2.951016655384848              4.130435532957699              0.6603295446650331
H              2.7520966538809892              4.544803726591343              0.09095038109162454
H              2.326459928307425              1.581400923192728              0.9924433782012694
H              1.6423730517374837              1.7250501288503888              0.8556830800882361
H              0.8081404895206153              -0.5484636440066154              -1.8439292550770099
H              0.3199331485368678              -0.11749448495967856              -1.8565368388928603
H              5.462981031585068              2.452019869353921              1.1304392171514985
H              5.2108849642826085              1.87574799531946              1.4330463126437016
H              3.862404915174381              4.853614416171181              3.0848526637948246
H              4.415390532065767              4.657096503847148              2.566693237143586
H              3.4652071621951523              1.4834302815500084              2.9728273141677093
H              3.040156837251466              1.7562969890496307              3.439273034487646
H              2.8559155499726576              4.219346621700438              0.6916632131375334
H              2.9369294314376244              4.891220533899097              0.3900132130067379
H              2.186712634447858              1.63325377753363              0.8346069282965413
H              1.5491339414935168              1.546692982260338              0.47829317326513104
H              0.7004741937033039              -0.6501118214730479              -2.0864835788785725
H              0.5153630116223201              0.005827323522592328              -1.885302787325881
H              5.50547141330458              2.4535394589596913              1.2202810766571046
H              4.982647304374918              1.986196620226691              0.9986699627278696
H              3.8079970328721866              5.111515238774832              3.0948618648505946
H              4.126072047791154              4.488666306832526              2.791476399309565
H              3.4814050138810564              1.2951759056721996              3.0980110424488108
H              3.2565893611898002              1.9604687732563686              3.3962625968574147
H              2.9096392794041113              4.013454761117735              0.47692566146679705
H              2.828598855466689              4.778022607367503              0.44395177407910313
