72

H              1.6998255485630391              2.08916458817337              0.3157058896192893
H              1.6666348988291237              1.3948458334545013              0.5111958135721298
H              -0.8965007596598681              -0.2260966401707269              -2.1934341580321064
H              -0.19469777735113886              -0.0626476002883503              -2.2005345471578805
H              4.472181848181764              1.9220162685550684              0.78980570704453
H              4.575969768433361              2.5107836189827797              0.3785892552972743
H              3.7514292043372217              4.363701522309673              2.656655875646454
H              4.1496017583305305              4.635489197191697              3.176930258267052
H              2.4059784281683503              1.3431685092867591              3.191365573384094
H              2.8894893487897604              2.009276660012141              3.3021337304423617
H              2.6663559912615145              4.539154469834268              0.3500930811485051
H              2.2727656473041224              4.10054413269576              0.7216413154880236
H              1.9344991617483505              1.7158042049304139              0.1529760006102211
H              1.5443411643899905              1.4371919275515492              0.686935159057736
H              -1.2550241972930083              -0.09597347377827282              -2.0993938942562775
H              -0.5081909398283602              -0.23827108780178308              -2.3458007294452052
H              4.531546632583317              1.8401954026705527              0.5171677772817926
H              4.58917179492862              2.520706802573064              0.8496589936869262
H              3.643252452821131              4.18404825431112              2.889870432494146
H              4.048621842912476              4.725056988195769              3.0421385083681427
H              2.376792269337209              1.505290667886265              2.9848462212247475
H              2.7622894624449894              2.0260873541932              3.2969272784014505
H              2.616532872143169              4.372772355199521              0.3179005079285389
H              2.0848504436787327              4.0513671467456              0.7372484989570824
H              1.5650529062438623              2.0460432360077685              0.24932227688010264
H              1.9013351220945758              1.4343708235702208              0.4221765281510179
H              -1.2348344857842561              -0.06240965641991774              -1.994276289751415
H              -0.5881116046648391              -0.04205124467863092              -2.560958208771483
H              4.671943649718862              1.8304154512851678              0.7008574131776492
H              4.536576454693742              2.471602173536459              0.3215014803330711
H              3.8098143111764253              4.368917569164918              2.4594686849626775
H              4.033305672507386              4.366602385341209              3.224371090769661
H              2.361481434261189              1.1569547148759494              3.1591935205799104
H              2.6603132111129555              1.8049280294149634              3.3307585777413493
H              2.4800132773769437              4.395823023313978              0.24220678113560495
H              2.0558282551702054              4.319724055268277              0.9078229868289456
H              1.7881108907334458              1.8246537856173386              0.2608038111787954
H              1.579556334140629              1.293563149786733              0.8378096913619693
H              -1.0051609022630899              0.178251454008583              -1.777456952447324
H              -0.42697112566820267              0.2238733470248463              -2.251872296739742
H              4.176194384464539              1.8316440520262447              0.5837424773892975
H              4.235643150020482              2.5129846434620626              0.44309650216255647
H              3.9331678100587126              4.267743590474082              2.53166593295237
H              3.9766212257424067              4.278418572816454              3.2812765576944547
H              2.393435870134408              1.586058026081289              3.2138561674156456
H              3.002334406353033              1.3601363043500596              3.3185893328619405
H              2.235368498311562              4.406419643575871              0.23085205731972733
H              2.4382731853335904              4.407507222787048              0.9293490809218728
H              1.6997979615740708              1.7208806390631817              0.29044888883374576
H              1.2820683749721395              1.7422429612855463              0.938046942929031
H              -1.0258050895345667              -0.025634125648464016              -2.078935921040239
H              -0.33300302666272946              0.20628358861336546              -2.2066691088456936
H              4.688329295705181              1.9058405947617547              0.875954694756989
H              4.527914637785404              2.5345432789818276              0.43920879314526934
H              3.6558808668103713              4.230009146337225              2.592445956778138
H              4.012047204029525              4.566851044214006              3.2396415870449977
H              2.453354202826201              1.407581257598241              2.913916948420072
H              2.9292873360506313              1.812236776409752              3.2178490063645735
H              2.797263836676727              4.2014089824845575              0.18234390819069207
H              2.4395590471223825              4.610821703368926              0.6979418365896681
H              1.8157237580249836              1.9540429392818188              0.29696345028625437
H              1.4901477154831395              1.3577505824637928              0.49762156992832507
H              -0.9199783548922666              -0.0973545539664977              -2.385877757510503
H              -0.2535538492759574              0.164446366062675              -2.2984963984097715
H              4.466452193657543              1.968673624596567              0.9036816903461231
H              4.525128791148474              2.519729481987348              0.3609636845799835
H              3.6070540503472146              4.184747279935991              2.818651825154567
H              3.8441215988159168              4.689059777239722              3.3020692420664086
H              2.654329691196133              1.5450949640088818              2.7610233016711727
H              2.6446329388940804              1.9826978591311883              3.351182180503474
H              2.861669661460629              4.173814053105821              0.1240723350290146
H              2.2792416624480976              4.014219058787731              0.5820112903125615
