72

H              2.10242157316559              1.445983922946868              1.477217126462466
H              1.7024878425730736              1.5122728602092494              0.8834999877974484
H              0.3626508589048694              -1.0580063193095566              -1.743232547988223
H              0.05815907796116437              -0.5107088584566466              -1.4438154441490072
H              4.58427102497786              2.3445158579904684              0.5499285611727712
H              5.071800348106244              2.0054119963708836              0.9948146503894504
H              3.876238044865135              4.268669225000237              2.8015063332547783
H              4.207750233444974              4.871307672819011              3.019514496115366
H              2.777460324698706              2.5883167764116934              3.4766012101736066
H              3.0828020017605295              2.1486099136803105              3.9019019781459967
H              2.5669118768842134              4.561630228640939              0.5531772834251527
H              3.0976368163153536              4.097142182207248              0.5600360086257025
H              2.2748560994034617              1.5944347490377768              0.8809512395243605
H              1.5526789723130578              1.3964387052561238              0.976975300651052
H              0.34097137856242665              -1.0078833911694676              -2.0150925393229104
H              -0.05268313851378356              -0.5635693213971594              -1.4766389817279366
H              4.438201959595753              1.967025559840712              0.6305700314287832
H              4.843120350327851              1.9757390764931357              1.3158066180271257
H              3.401919567997468              4.657887794070724              2.7490034881493823
H              4.052190120340395              4.720621574876242              3.0965737870919945
H              3.0051392789335205              2.6678609206466146              3.534450249944821
H              2.963530468161368              1.9220205430477983              3.823252044918499
H              2.5919864271610145              4.282177985939275              0.3770913726777265
H              3.2562565307457034              4.1272410124311865              0.19088977218981307
H              2.3554117108413273              1.6361432163268734              1.0995027993833526
H              1.8549227218682576              1.5001258839710374              0.5991390510332255
H              0.7433656434530911              -1.0587240424070834              -2.177314223605577
H              0.2531669054357291              -0.7917704186812642              -1.730573005956952
H              4.8400324488621              2.062870733471522              0.9310486703541032
H              4.887618921431927              2.2481630001790958              1.6072051883479475
H              3.585719832829088              4.76891917385176              2.4854355439605267
H              4.168214070085024              4.7699282907827465              2.9870665175297986
H              2.891376766268039              2.459047328673558              3.37515858686812
H              2.922488505078496              1.936474567750364              3.9688321034522125
H              2.8186009764174584              4.276911728513518              0.6784061778258483
H              3.1369454373106445              4.173063727646696              0.031424065424033254
H              2.3678022738443834              1.360783908652163              0.9071005263726406
H              1.6284963101207166              1.5233903337831822              0.76909694063791
H              0.8683786923224952              -1.0409215737352637              -1.9171047618043042
H              0.2340782830576634              -0.9648275664246402              -1.7205997627227978
H              4.90380712937577              2.5193968583457202              0.6756867776476962
H              4.91737017367156              2.1618275425487075              1.2998577478511566
H              3.57324251555002              4.523622647195753              2.834957100562866
H              4.348996410231018              4.6836264468880975              2.820712100714902
H              2.9948860660459893              2.4475495058773866              3.422379784702789
H              2.8717373817094822              2.33162979500188              4.049258315722432
H              2.889724652067954              4.276776630895376              0.748934893018164
H              2.8399857119633714              4.044778056917098              0.0916739169324097
H              2.404589721220433              1.4463351055066735              0.8797141656553822
H              1.6721938308560362              1.5896715421525451              0.7532090305485865
H              0.6827637763664666              -1.3493828948913258              -1.9145272661094586
H              -0.08577382621535051              -1.0297888748164008              -1.8211082512697698
H              4.698626112702777              2.4759467597143594              0.6862652630211407
H              5.0170966149117096              2.322220874270801              1.335898563763953
H              3.6582379755694827              4.355847090963697              2.6300148248781046
H              4.233170197799766              4.566231858614045              3.0179045877062176
H              2.761945438579133              2.3496888464496846              3.747195216733539
H              2.805255212681116              1.9591548022335816              4.379870754698215
H              2.845023437611183              4.245133629565342              0.7611880739078508
H              3.034768122288797              3.893659434753918              0.09632591991915533
H              2.3610723271871095              1.1171806525863568              1.0701385115313722
H              1.6545281307377326              1.1306794172401589              0.9546664835078308
H              0.5771869673445232              -1.2460852395382374              -1.932425626768315
H              -0.04601277350611433              -0.7043338197941134              -1.7018470379551986
H              4.814757976304353              2.2763554245792403              0.6902861484859769
H              5.005085645370528              2.263749333551242              1.5023954239974333
H              3.876170721469696              4.251695026595884              2.6441839805609004
H              4.176752786998228              4.6584810051165455              3.1822220522151903
H              2.6368173701612263              2.2081619769477623              3.5683654706262047
H              2.7685063974614965              2.1542435624496785              4.26735395056626
H              2.6079930140645193              4.216939816667598              0.6471896004667355
H              3.1097608210803136              3.921877430602142              0.1691919375191716
