72

H              0.763945867567618              0.7954899912608241              -0.5020702449546562
H              1.4061048412834618              1.0566725656356204              -0.37491671637949237
H              -1.5532384372970767              -1.4707842018726203              -2.4568560972436964
H              -1.7594655899135596              -1.6676261046871799              -1.6971113450060162
H              4.044707748808514              1.346855686857535              0.7249806087549513
H              4.064409268523548              1.7919369010247246              1.3131306697835379
H              4.164485436075339              4.177432610336513              2.5913264674485816
H              3.6505997269306656              4.11781433289793              3.1389592459596227
H              1.2969234757749337              2.097487724932381              2.9301767208292486
H              1.4110523020193069              2.137983551640859              2.1483240830290606
H              2.1418259576425145              4.138304815901298              0.1725995851320631
H              1.775180820475813              3.9218509268019597              0.7759528882664563
H              0.8400223462893349              0.9808941972237605              -0.12190735336462177
H              1.4776897759658323              1.1320009259377652              -0.5207926185679894
H              -1.3014016880401755              -1.5455604760912243              -2.3783324179500718
H              -1.4529424429489604              -1.4795895737046039              -1.625951785417632
H              3.7988609954813994              1.3423156999219414              0.9272019635754838
H              4.259783698388717              1.9195326465493565              0.7729903654383663
H              4.254580378886615              4.389506541478972              2.50487732992423
H              3.8424751481194646              3.965712576374939              2.907112401317627
H              1.3639873008987566              2.281980002123413              2.7524096262767626
H              1.9690862709774248              1.9755431236130685              2.5121026660430754
H              2.2750778559980858              3.9119647578584673              0.07291759817232629
H              1.8668062534361791              4.082596248036829              0.7101946140769546
H              0.9697944368422177              0.7516626170962332              -0.5923023144597314
H              1.4322661494195568              1.3169704673594058              -0.41839226626478665
H              -1.3579660620743084              -1.604273337368766              -2.3372287851803217
H              -1.6726753821367508              -1.6667718944790564              -1.6713210302383972
H              3.7969976929278646              1.3512116011963065              0.6533242316725631
H              4.088938408044383              1.8914631784727236              1.014124384663381
H              3.951979756227021              4.2562988161095925              2.4296749092670065
H              3.7439408008832156              3.986517297719521              3.158380152912169
H              1.3089282743950021              2.4202449375051214              2.64541094525526
H              1.7525159030174844              1.8665621494693674              2.8998535062275956
H              2.578555608109261              3.975101818390572              0.2991841400996785
H              1.8297765747457666              3.933223856813978              0.3746638982334291
H              1.0146454511438925              0.5898509690858533              -0.6586027410015802
H              1.390196889008007              0.9023063007204799              -0.14751376946645495
H              -1.5706869259929406              -1.807130810148868              -2.587996115663171
H              -1.5848076298946037              -1.9886619248995148              -1.847473418379244
H              3.8554347391120274              1.2665602338251585              1.041842296506986
H              4.415414039256899              1.6606374779286879              1.1064584946531653
H              3.8548156210403755              4.492380915343191              2.512764725128658
H              3.6124188707980482              3.9488635420903733              2.9780460308174264
H              1.0835143051134926              2.097565783582625              2.681777737920095
H              1.8225862221326778              2.171353125336261              2.640337983726478
H              2.4091984988382658              4.140225176070938              0.5081851800954328
H              1.6930671741917347              4.126757728703535              0.6449414321049324
H              0.7936842006749804              0.7065429313770785              -0.5196195446237256
H              1.3798979137927507              1.0673563715059002              -0.0694840461059342
H              -1.6565394574501615              -1.4875865359633302              -2.3613198513534845
H              -1.6450014386729546              -1.969685761833161              -1.873173502059906
H              3.3953147101104335              1.2588609029708788              1.0588479111750504
H              3.865650429189147              1.787252503036074              0.9305446518108031
H              3.989367208856135              4.6516238574674595              2.4331567963870264
H              3.805653361907842              3.988275541655457              2.881651388281455
H              1.5227577503625038              2.1537115231349433              3.045171067445297
H              1.6465665331299681              2.0728007951224763              2.3393996168484015
H              2.1475249421646563              3.9280805948073474              0.5404664279756475
H              1.5174596516378687              4.174565186883193              0.9328604239790691
H              1.2160276413450124              1.0455664049875453              -0.6562895435505111
H              1.2621223150471528              0.6147259632511974              -0.06576172535228372
H              -1.75905692690386              -1.4616171399733302              -2.2570933071452877
H              -1.9296875815960144              -1.904964858088818              -1.8527629292979764
H              3.5842200901377517              1.3949023004611707              0.9488400513814039
H              3.9738112601907383              1.9185029074275155              1.0668785600054727
H              4.101842869949115              4.608038564881237              2.4284906998136124
H              4.018987706885108              4.029168761141798              2.9034717159317136
H              1.4523225344770019              2.1186693835442205              2.81802371533485
H              1.8380268853327129              2.0838944271393407              2.101735557961357
H              2.3357693351136626              4.1604214990831965              0.764406346274721
H              1.6267025444105097              4.381766395299896              0.8518428350877123
