72

H              0.9883325025309603              0.5865512198430071              -0.44012222773813225
H              1.5210793099594138              0.9319721419582127              -0.07829775374061883
H              -0.9824582437934023              -2.6364116866628597              -2.0311951777286423
H              -1.7584492585662597              -2.934054158973342              -2.0896939833163937
H              3.8039774542476095              1.0357430510610008              1.5211187420413403
H              4.477837489578767              1.2536842252572191              1.5153065702469208
H              3.70588273373768              3.565043161324251              3.2146530316854394
H              4.231345447073555              3.9968653325818164              2.989467252857258
H              1.4940926415068356              2.0577183829197248              2.208100043095602
H              0.8934081404836907              2.26127480756268              2.577278778534718
H              2.7042284366491227              3.734769071714674              0.04032107044270441
H              1.999467435509736              3.7092726610227555              0.3935258451386544
H              0.8569550619017516              1.0275009474522587              -0.4597685987762524
H              1.3931254142828071              0.6213825412397658              -0.2340979335150442
H              -1.459094659471496              -2.4449256944782913              -2.226861716716158
H              -1.8419351398334374              -3.0479349870619865              -2.3057666453254795
H              3.820347250152921              1.046958156673184              1.5462495507654732
H              4.480609246405765              1.2320952224565116              1.2579734367508364
H              3.6349179332689903              3.9537304497455494              3.1925039717513717
H              4.212746466468737              4.265684165899557              2.9506940858728212
H              1.6493111352423095              1.9895219411822045              2.5751587752145473
H              1.258473057026848              2.497292156578131              2.4361274451657007
H              2.640470660401041              3.6665637733862506              0.030726032408785384
H              1.8581537084117572              3.612158156354273              0.06940622806464739
H              1.2220581947050633              0.37739501043127804              -0.6182386945943229
H              1.150865272454377              1.079386120653339              -0.29402225505816754
H              -1.2982430137423802              -2.4441868049152338              -2.4485969563130388
H              -1.891542273379024              -2.7684191508707228              -2.2794397196067875
H              4.034482847025515              1.189646862077914              1.354617611622633
H              4.555284290588292              1.4219545991007438              0.8985093745823174
H              3.6121737944839167              3.9000623171734476              3.234889549414001
H              4.187646146106593              4.225025084279062              2.9335770782137773
H              1.801917730369292              2.218727523561753              2.3264229032887593
H              1.12118454071391              2.5652277001362433              2.4862714146738183
H              2.6887639834391757              4.165237257746093              -0.11408835794449136
H              2.1228952755456345              3.753723888220603              0.2176948616393645
H              1.4498527677022381              0.7475419981244553              -0.7136086973668032
H              1.1825730134190124              0.9826300148501385              -0.051509533403516876
H              -0.8618152415603415              -2.3017764535434053              -2.120790316475356
H              -1.5498749978469053              -2.6919293124742585              -2.2491676411489903
H              4.153076699104847              1.079115028477491              1.5954165109446419
H              4.527240547257095              1.4767362989903927              1.0060052843002971
H              4.043233699244272              3.4620136873758014              3.26620477963132
H              4.195971559444339              4.13744425736539              3.0652645045941163
H              1.372104711620051              2.3331137891666156              2.884205345801841
H              1.1817401049976262              2.4879774955974474              2.1957389705585375
H              2.8730591733475803              3.867217100499111              -0.007635988378321095
H              2.169461957536485              3.6437870515386734              0.2269203722813122
H              1.1135682004788776              0.6966243203756523              -0.7024012676875794
H              1.4763029553019693              1.01193685242062              -0.12014910150584376
H              -0.7797079926164453              -2.5572362452050674              -1.9219279818558281
H              -1.4457308518228584              -2.4045966208768266              -2.0712153968964335
H              4.138090174428169              1.2034617332855815              1.5748614544683268
H              4.2896606948586955              1.694461424144333              1.047415134502361
H              4.095414663387203              3.708906323027626              3.3081072801200526
H              4.348713054764016              3.8901734142092392              2.709364652189715
H              1.610421026039088              2.3019364691709767              2.738786615239401
H              1.3241972388397885              2.2994332763226013              2.052577543343662
H              3.044652801894673              3.8450683833448984              0.0914285372674199
H              2.39673603145287              3.5518836782508867              0.2798432469363871
H              0.9601771726886633              0.6622306583723709              -0.546823117137251
H              1.29541325926352              1.2981014868852503              -0.2632303105722065
H              -1.0026368488983017              -2.6575158833405967              -2.020190765392842
H              -1.7166245485724918              -2.5589177700024215              -2.165705538958923
H              3.5862933189675807              1.4149719628985913              1.4203542725305016
H              4.28644052339639              1.2565159681143008              1.1386577559734572
H              3.8194520403393164              3.4827245125676756              3.3068956072035354
H              4.349308123486569              3.927572616795825              2.96513443907478
H              1.6916102242441549              1.993713389687369              2.539787792149291
H              1.1324342305305732              2.3430040134176218              2.079265525984958
H              2.9451067566389466              3.6294834282708757              -0.07025009349097791
H              2.3999600365926743              3.661699036521985              0.4428919475359406
