72

H              0.6744538075165334              0.981260426663469              -0.38521265331616505
H              1.2448039354525477              0.945865257435628              -0.8564281870817949
H              -0.954910914151634              -2.429671149848952              -2.257519438893947
H              -1.754806861916375              -2.6548594901754825              -2.2509502458601274
H              3.5979897490921524              1.1566334591364036              1.4267860035610624
H              4.106387478152582              1.424218521460841              0.9525379295352917
H              3.6021559698974874              3.890242164790427              3.1484195620573256
H              4.272689121739718              4.108443009395459              2.808032963213058
H              2.0082452263324537              2.3012262499338427              2.667245826078923
H              1.3825830848390652              2.2495720005612103              2.3734041165263275
H              2.7943955079228444              3.5417380626558885              -0.018653098496204456
H              2.171051867686506              3.77622106219553              0.2745416027554051
H              0.8939243160646454              0.7919406601670375              -0.49003983037211873
H              1.5523681720470142              0.9873057667545956              -0.6376529469471676
H              -1.1338116827938811              -2.619489520188319              -2.246064561884885
H              -1.7415441586665523              -2.7596071889139933              -2.081743772872763
H              3.8742559219051724              1.0322990031305948              1.458808987139495
H              4.436593528681234              1.30341025329934              1.196208459163915
H              3.7162200129665535              3.7819560980449074              3.1552089262601473
H              4.41051217458658              4.021268653014891              3.0245335891729437
H              1.6519811359410852              1.9974987146356593              2.291784125785771
H              1.1853789573876339              2.453799063496521              2.469037110749951
H              2.6463062439759346              4.219275111020679              0.10863771557133663
H              2.158501492868496              3.867505745457849              0.5673843003113359
H              1.3187807576452333              0.9678046742667303              -0.8363690659451345
H              1.429610588417417              1.0063978698679847              -0.08607707286881423
H              -1.17151487998258              -2.3192005943389504              -2.0292669742578626
H              -1.693783655850019              -2.7385056766677724              -1.8965822114375368
H              3.9450149892134196              0.7483192998120426              1.4120029462824737
H              4.391071273327859              1.3288242088411777              1.2048809291193736
H              3.9371479195801236              3.5510980846627307              3.284754154308841
H              4.3662225160351085              4.224568102766812              3.0116611963567275
H              1.2700650782735226              2.073010982145569              2.8696515030509766
H              1.2389156184757737              2.404266044823063              2.243707888151806
H              2.430670828744949              4.182614742454707              0.2758099819212134
H              1.9663355589475242              3.6160892566645284              0.13521791405967543
H              1.591496593430267              0.7248465845040648              -0.7641862904981094
H              1.528862228064414              0.9925675163574983              -0.05038596921837452
H              -1.1897984940667483              -2.336589360598503              -1.9812927486886969
H              -2.034939850862614              -2.4764354717581067              -1.9605112184947178
H              3.824761295490929              1.1664197655489577              1.3600758256665413
H              4.4279728785719294              1.367681875467872              0.969400312871599
H              3.8634212111408903              3.9025172198143796              3.146805197801112
H              4.542699610198791              4.142346631464063              2.899214598858328
H              1.6922355684406905              1.9781319442937213              2.7171901081920002
H              1.4143849710242644              2.4181128531318574              2.1619668415008255
H              2.7262817554592953              3.992171416022691              0.26200336790167494
H              2.1285618780502933              3.8830862786610476              -0.08185985368721586
H              1.2344077991297502              0.6319999639408677              -0.7768967638922243
H              1.436296036295234              0.900936962675896              -0.13564866891298202
H              -1.1905843944030805              -2.4115105571506383              -2.1463545292882036
H              -1.8948847276809568              -2.48589196573025              -2.1811349730389007
H              3.9581592062110804              0.987069552238471              1.2842508246367605
H              4.609624414199135              1.4612629933806258              1.2409072676634056
H              3.691205125265534              3.540020381389071              3.079528233707706
H              3.979006662619099              4.192028284480118              3.2516807309248508
H              1.3278881115600418              2.056336384293583              2.857108189007958
H              1.1971451407572773              2.376317687807707              2.1853149027312155
H              2.715584321523277              3.76946440883035              -0.40429488471158403
H              2.269392761817803              3.7063033740393974              0.1161100919509507
H              0.9410005456173219              0.6429930641075337              -0.48919941604348144
H              1.6980095786707161              0.6605492040508428              -0.45551775104883097
H              -0.8436795312895778              -2.455644021448664              -2.33296472431716
H              -1.5917381857736856              -2.683077537009934              -2.2204302399605576
H              4.008240776714945              1.0566764147650942              1.6152860128761024
H              4.492988867584386              1.369977629310609              1.168083980889704
H              3.6280719829417003              3.6241559481278043              2.9389420430717905
H              4.006201054652966              4.293058165634249              2.9886013859803193
H              1.8261380496465955              2.3363054994020955              2.7929541191149103
H              1.4146814949877315              2.3534613471524772              2.0771688434161906
H              2.7316392888854053              3.5968297627167476              -0.20127961205583766
H              2.196846360805932              3.7451343402712705              0.24309833328506075
