72

H              0.9011825081321179              1.0296789893984857              -0.4595817692760319
H              1.50892103833757              1.1538935093546399              -0.1698663694906335
H              -1.5366293670140336              -1.3984200165798968              -2.298331386110695
H              -1.852406823786348              -1.6310095550666526              -1.571501344934788
H              3.55914783203983              1.4576082825591943              0.8433497794293789
H              3.9673703743249766              1.7802996980106849              1.4558691063030265
H              4.256836123992394              4.2958516238456              2.7106025910041986
H              3.6972365140006658              3.83085132399218              2.910347975605621
H              1.2525277545026186              2.2733708931317786              2.664945507749032
H              1.7576177357902083              2.0795477036356984              2.1878810316670023
H              2.1073672566014348              3.960035915279714              0.39515239816781156
H              1.5930204453365242              3.8801835535341493              0.9102577366751177
H              0.8823976303590737              0.8404205006908445              -0.4088333080019625
H              1.4850719866007671              1.3964407745402545              -0.3668398470977835
H              -1.5480751791639027              -1.5623751313386207              -2.4609504836874256
H              -1.677122835402883              -1.464292663986101              -1.6611083152698567
H              3.9814796568088626              1.263720965279122              0.8965322920515271
H              4.391110556578684              1.9366168222685454              0.9249511902540043
H              4.032680333417412              4.607903073904478              2.41888557196984
H              3.778699654403241              4.136199414941558              2.913170778023664
H              1.2484800980612993              2.279248102921517              2.721641628608633
H              1.7772359860572107              1.8763014520990784              2.5578952835828677
H              2.329468871595693              3.9068480818544122              0.2055470584976704
H              1.6346954920131185              4.016599995445846              0.5216613646951646
H              0.755735873555911              0.6658660867368643              -0.43184765630634553
H              1.3433192493949662              1.082662344178558              -0.3529879515837229
H              -1.5721941810062148              -1.5470430048424462              -2.6779103393743955
H              -1.6679090968634172              -1.568423212266266              -1.9352579196733966
H              3.8052477631783796              1.26044234158053              0.6310960890403142
H              4.270090695301348              1.8725373241022203              0.8434923123477109
H              3.9661732057440964              4.6011894956573265              2.6735771382968374
H              3.487894668833213              4.03993959914848              2.9960182477341974
H              1.220970081315912              2.387170797869141              2.6090387139236224
H              1.9013414658026437              2.0083473319028733              2.7989258227736435
H              2.263980759865239              3.8644062233020446              -0.0023683134265331
H              1.8182807558909195              4.105028887597382              0.5288011356828864
H              0.8010352849189171              0.6018607438612252              -0.5156708582818442
H              1.2090785644368438              0.9388654763457002              -0.053693403263349544
H              -1.3742979399690547              -1.5614307098929792              -2.541622522163565
H              -1.2881308177756146              -1.8485226235931127              -1.8060932475912008
H              3.83991998460942              1.3206853418451396              0.9114545332973099
H              4.237217550054128              1.93450679519896              1.0695390368578765
H              4.158992306159819              4.44956693252294              2.5453254094246236
H              3.6702791058325595              4.04481644229701              2.9745362384612406
H              1.060416546388788              2.248862699377811              2.81904479799004
H              1.700981076720665              2.0606106776190796              2.6880064504218746
H              2.276281261710736              4.109033630166271              0.383507393780933
H              1.6645745814479105              4.1320935211522505              0.7951070237118917
H              1.1544365318913474              0.6187634001156487              -0.6102090556880967
H              1.1521787109660986              0.8669970946962894              0.03767622198620489
H              -1.5906782851891008              -1.3295147437324193              -2.202453067457603
H              -1.5295638565110847              -1.9742284954315148              -1.8957897783286892
H              3.7220672527710446              1.3384221456953134              1.0466491889585372
H              4.04503144973325              2.0549298264560636              1.0015544420454765
H              4.150238792227125              4.441011333543133              2.3276056121648123
H              3.9302721897396444              4.121667640152002              3.0375538941847315
H              1.3783385658143616              2.285935599154505              3.0221024017162614
H              1.636543464412877              1.8820103999704638              2.5451501525397626
H              2.3613011840333478              3.9692067691732107              0.7356238102463617
H              1.5929592897400524              4.1188938109240185              0.8039212725927708
H              0.9836821190663138              0.9350312320246762              -0.5582825583477117
H              1.2017487723380347              0.790160040209257              0.135016352839
H              -1.7431191746730996              -1.4410289544082593              -2.2919940203908076
H              -1.8405277465679197              -1.7495911326944829              -1.6731233819129705
H              3.5469266921499316              1.4763799972492568              0.8260068290714566
H              4.048349355809524              1.9451143598835494              0.9645866459140733
H              4.068881137625774              4.494923568012964              2.583137097194094
H              3.9522158167949004              3.7660686190022035              2.779869229136446
H              1.5263110891696023              2.0648887949381303              2.838431106032271
H              1.6494802106278053              2.1792958476519373              2.044169373071342
H              2.2944917206280517              4.226317125646307              0.6904019831314879
H              1.6054945509541998              4.3468442023370795              0.9970376752435239
