72

H              2.4038541681781393              1.6319848923224978              0.8736506691912115
H              1.7332557357921976              1.6813908004140776              0.5728361719595357
H              1.0118380709405914              -0.779175117159323              -2.0184393928076085
H              0.8627471308398684              -0.0008718578511210384              -1.9576358033536654
H              5.2970943565355615              2.5448757252719285              1.3116679738335932
H              4.932278243719951              1.9803469660510014              0.9899952869340911
H              4.013109291005166              4.6519924104768435              3.2135633743105365
H              4.271737001363074              4.370614781913953              2.5475586817220393
H              3.296720294303034              1.0520111269756038              3.6869817886081377
H              3.221184645435051              1.7855023344137506              3.355570172254721
H              2.6906669803401733              3.922926068601501              0.7929543643450917
H              2.7963702914113258              4.566915705869048              0.3254811923857457
H              2.155662032998425              1.4254913994042768              1.000749562158555
H              1.4671768994905823              1.8332554844447033              0.8265460091886577
H              0.7332362860776366              -0.676940341780442              -1.6195183402549593
H              0.8882518050102459              -0.006179347540370827              -1.9540102870135148
H              5.346087239609378              2.5880897748132647              1.4203019143417497
H              4.918938055506231              1.9766065649226263              1.3222429380880816
H              4.189424357191327              4.7037342651536305              3.250876323868385
H              4.488405502920753              4.235526912607583              2.7292546667300055
H              3.584327517310382              1.2451790451162155              3.7442523872949804
H              3.2532263158020513              1.7761819027975008              3.1744146088402405
H              3.0120563571125794              3.8733793925088413              0.44234028218376753
H              2.9125153520690628              4.6279589597255235              0.5288812554970368
H              2.0952466884564074              1.2973990917877483              0.991736904787627
H              1.860654069611506              1.927697188130119              0.9103156298938495
H              0.6244986732004784              -0.7853496664540461              -1.6733925061632977
H              0.5390446769460072              -0.07361633307991623              -1.8183606530246377
H              5.062106866378888              2.653240013902998              1.0907561952672558
H              4.961634007267298              1.9248873698061446              1.3765219364613508
H              3.9825127209048206              4.681117763153709              3.1757024195041716
H              4.53187413613343              4.315494619657874              2.9332829685844666
H              3.532408863403431              1.231521681114248              3.4922025838268156
H              2.9425627875825566              1.6731033129451789              3.31638940048808
H              3.3015348097010264              3.8465690775815964              0.4495253289027421
H              2.934625622977397              4.506422693405392              0.4766761034732836
H              2.1291874286100807              1.3383914392223375              1.2122145791796248
H              1.7312527585601143              1.766122864108884              0.7755061207852962
H              0.7487988517235245              -0.8687822655678278              -1.5727728604584787
H              0.3018145489362199              -0.17343329268465105              -1.8420579135749229
H              5.234996494851262              2.48351945760627              1.4258572057244407
H              5.266922151361585              1.737579638526977              1.1200801493669035
H              3.9944888328103456              4.787571178477312              3.340694968071738
H              4.35211538074612              4.489401376841826              2.8211122386103273
H              3.06920103970818              1.2567899057767602              3.1875263649147985
H              3.0489023702016844              1.9987457304804126              3.543271999780911
H              3.101671827807011              4.149302794314893              0.78345263047017
H              2.7983521198206485              4.6341811918486275              0.32664889096444777
H              2.481727456072467              1.4343469232638943              0.8022111922797885
H              1.8983732919012952              1.7589559012095775              1.004439667767593
H              0.7100796168914825              -0.7522984124428927              -1.8619314579072637
H              0.1475395644855713              -0.38060630853358307              -1.836648557852569
H              5.260649092462228              2.4271921442638495              1.0621769645711623
H              5.183428959944637              1.921561262911289              1.5366612752273747
H              3.7603664126584664              4.745241488335222              3.0776854512191085
H              4.472729069014969              4.729101133069782              2.820566191587512
H              3.421816914542549              1.7283931595480566              3.0775394127766744
H              2.883302384271803              2.1263968574045875              3.26702249126218
H              2.9699494587575237              4.191435028110266              0.635983567302147
H              2.7266346424937287              4.636935151206467              0.1137524244870289
H              2.4826656038572334              1.6133829771599537              0.84608680224711
H              1.8087058108092748              1.5107854150468354              0.5379324653064878
H              0.5699085361099805              -0.7567515956296934              -2.249408474271226
H              0.3752382608058655              -0.1037167783914479              -2.0812715684709646
H              5.317878659041522              2.641170158221354              1.2353546985060695
H              5.075872024701954              1.8581739681691143              1.2129835024937887
H              3.679589068015611              4.944672239453487              2.934283883797271
H              4.303157988119281              4.611063327711693              2.812985904965761
H              3.233427142394834              1.276085978757913              2.949129410481855
H              3.313567661689848              1.7520674573512227              3.537818913189373
H              2.6919637304429975              3.95212634535776              0.6511615505988518
H              2.6510160498757265              4.612416414992841              0.2659133986900838
