72

H              2.606577362935113              1.5933227541175077              0.6668801095907496
H              1.939919074620323              1.8534367172586095              0.7032801443289749
H              -1.603145694148067              -1.431321519276992              -1.9715603716027308
H              -1.149838731510492              -1.6059562322853944              -2.6745719706171642
H              5.087259480528913              2.1640138777978226              1.1255249919378296
H              4.900933333342471              2.3920566956849103              0.49475297752457853
H              4.229748615941297              4.754751595244169              3.014650317824146
H              4.613094939412651              4.06455707939226              3.0433787285292477
H              3.5860486356681003              1.5573377900904546              3.5165664872118896
H              3.0483508459456283              2.176718005314243              3.3974644681941735
H              3.125462394096364              4.236350207360052              0.8872267576215201
H              2.5120189700728894              4.370887364327018              0.47987623952610237
H              2.7321062490612897              1.8010448547778202              0.6672761428275908
H              2.049235614572947              1.8530422562708762              0.9691598621010925
H              -1.4887453604401246              -1.5361157124387848              -2.0370122148580654
H              -1.1994651557523066              -1.7193615429099034              -2.6592290046606006
H              4.888847388338786              2.37216647114592              1.176282433878992
H              4.9615254247366884              2.5094589197220776              0.4611619804368286
H              4.561422646572232              4.5448253235425655              3.229685298004305
H              4.596305183653479              3.8619127706859095              2.905532440080895
H              3.4396877664724608              1.458884168457241              3.240540825342121
H              2.974523768769792              2.0403989863628658              3.297651858022134
H              3.1760034367698697              4.4313833996575              0.7603785013352947
H              2.459172274253725              4.359830656076046              0.5773561194660117
H              2.3950707413266716              1.7574665526283495              0.6924495965333174
H              1.8247059719187368              2.0688665157851895              1.063018606771996
H              -1.6540840358503934              -1.4650287767603378              -1.8172156535733537
H              -1.3089628812112262              -1.4557363728371608              -2.4047534228638825
H              4.992123106791895              2.424234397757859              1.0993227469937172
H              4.710465013244557              2.3509804193468935              0.4424721746303478
H              4.637988940714594              4.545347052584744              2.9483982727198983
H              4.797322932488939              3.8866294635568823              3.224120830508196
H              3.047385883156832              1.7233434010604909              3.664703220247198
H              3.067133592282674              2.309612235555979              3.3632541801255758
H              2.926109771326279              4.496664592542385              1.0076747253351706
H              2.886909657041082              4.372863024244151              0.2893948679941965
H              2.4112163034263627              1.8232629943301972              0.6257258059985746
H              1.7625069947387757              1.8305489238476051              0.8956517685364479
H              -1.8333866186681291              -1.2759209949391561              -1.7580187747316103
H              -1.6160646640344676              -1.269092487601061              -2.484687789313271
H              5.0068912370333525              2.264612861321862              1.1873933571011408
H              4.772305338242086              2.52987714899087              0.5317983351203875
H              4.619693059947246              4.686261569016964              2.6656232956123205
H              4.798314779630445              4.117143176943222              3.10449912228901
H              3.4620622317312026              1.7386500193188088              3.530498098169835
H              3.0496491101621483              2.1488653026165463              3.9028610039788174
H              2.757809570798705              4.566774228601119              0.9500832089260417
H              2.962878605003722              4.486596116152161              0.2753436924388623
H              2.2926903568797763              1.5297322971696372              0.4470959048699741
H              1.8192441687936383              1.5158491342515419              0.9933088442952346
H              -1.5382361351478007              -1.0894372908202283              -1.843409367995
H              -1.3860228878842085              -1.3223396691650233              -2.517713297512442
H              5.028628250901108              2.499325770426502              1.2321498666645208
H              4.783687305723083              2.4278974346276674              0.5730062498078283
H              4.3675606839998204              4.820219738725138              2.9942943332938556
H              4.6609749095653825              4.128088763861649              2.8261761424079332
H              3.632837947300784              2.005469677770546              3.6084075192392437
H              2.9827255083043447              1.8620462478087154              3.3297284603106925
H              2.941996729346355              4.281293006619466              0.997075419482864
H              2.7328630644719065              4.4389788457574895              0.2781045370166115
H              2.3453683374079795              1.3498225094359853              0.96263731075
H              1.9276842458728036              1.8509730947026743              0.5871023105388509
H              -1.3767501974910488              -1.3241043306027946              -1.8309603370390937
H              -1.0119483863044378              -1.5157615499504313              -2.516905920464541
H              5.003852916739986              2.5180795208771953              1.0628523430163517
H              4.877902161689523              2.2550389738697425              0.36490827729239345
H              4.274617246770554              4.738995588696156              3.1476004542399196
H              4.620886828749514              4.138278319292635              3.0381397981658864
H              3.5125469857995646              1.8683621425374404              3.577828422640453
H              3.0478214692973493              2.365363272651694              3.4482721894724317
H              3.0956606764820815              4.534588124421148              0.9873160003440773
H              2.8462121115054813              4.636031943746595              0.23995465945038622
