72

H              2.281501667674153              1.8744368919293524              0.5956429303205245
H              1.5764620520355301              1.7278577408492002              0.9306900459958123
H              0.12157735421989445              -0.15060529409981901              -1.8685865822988468
H              0.4095051970544884              0.4019235571952758              -2.391883327052643
H              5.515486381143505              2.281323059425105              1.0528926868314075
H              4.9785539018039895              2.6325133169920596              0.5638502699649458
H              4.4304010566663905              4.733520381146208              2.9246569394043003
H              4.040823198225855              4.071881347007592              2.8026778456821773
H              3.5715406535660934              1.3821925859231061              3.2023000107442634
H              3.3618972912826974              2.0905916164125418              3.0497074607276096
H              2.972310771792836              4.270639531368728              0.37389496953700335
H              2.693367491414711              4.708700892969898              0.9374208359552418
H              2.3555755503989513              1.5865088068479976              0.6038435332987656
H              1.791253502591404              1.9880178323869726              0.961533466196553
H              0.0850196047337103              -0.2035250062445427              -1.801315737341268
H              0.42212761874163335              0.2547540249520646              -2.1705044422627924
H              5.09041370150911              2.292809382411181              1.2278875658713475
H              4.7864178756634805              2.5596037217212606              0.6778593690841338
H              4.432560421513284              4.269450562648617              2.991033160019399
H              3.860497103236677              3.8592747867823554              3.2945519844291344
H              3.440776902803569              1.4898102357776932              3.205532003206087
H              3.3160652912395956              2.2319115172627315              3.117260095660676
H              3.1877958694213135              4.195206796876255              0.12787689922533313
H              2.76603223046678              4.3410823750373515              0.6912549982351285
H              2.2650139309820037              1.535677416767875              0.8315836720813392
H              1.7511206672288382              2.0021299711050595              1.0876793249986871
H              0.07008935321919467              -0.3051682554663216              -1.5896122142549147
H              0.28936983405579175              0.21223557219827568              -2.1926258138281143
H              5.25497798346295              2.4584614440179564              1.5562308999367276
H              4.95882916098692              2.2511313524713867              0.8209177071256701
H              4.458304324605067              4.439690735739493              3.0695861190553435
H              4.078335004677386              3.834178180281397              3.0977520852703853
H              3.0431449628496363              1.521498508814056              3.340299979605415
H              3.4319150548948176              2.0599824476390847              2.9595020160280905
H              3.256098636198132              4.2798499662387535              0.2101375631154978
H              2.8687524521249332              4.447314296915593              0.7903615430791446
H              2.2222270872868477              1.8217754207682153              0.6210727116276746
H              1.768949087933014              2.040399565547365              1.0635133144945177
H              -0.09474070103445727              -0.4163401829524773              -1.6180037301118495
H              -0.021394732701699018              0.35553344798800185              -1.9811887569612254
H              5.389333094454956              2.417173421049783              1.0353151487963936
H              4.864099741271093              2.155666098265054              0.5225329720911334
H              3.9677776192454846              4.654130849744981              3.0622595760572175
H              4.297816687570418              3.9963491078508784              3.015910363288087
H              2.9410769403343475              1.9345413979299355              3.4118994936713394
H              3.544363259250518              2.125598527461983              2.8571810781044893
H              3.0249352809920684              4.342373982701505              0.0939655784204631
H              2.924016943681476              4.542668943837451              0.8155113823242195
H              2.307579912593173              1.7121326712361469              0.6224615675125289
H              1.6761735545490228              2.097612193845557              0.5130955220011278
H              -0.3087841124706159              -0.5037842847506776              -2.0482907777866664
H              -0.13514853012634728              0.16318137827902407              -2.291240748070586
H              5.266561026074573              2.3152379186572603              1.4374369010677088
H              4.844268634043646              2.1902074712548423              0.8020074170963347
H              3.873515281051176              4.864326287570708              3.0369043220047334
H              4.064942436044177              4.18156744089249              3.0894666462889515
H              3.042598310130542              1.559554064526702              3.176138164852956
H              3.4506452309012436              2.1468975522588365              3.117824636973251
H              3.0431536612271253              4.318346909959524              0.32523747843526635
H              2.6116695024453693              4.902203405884473              0.4145959559629979
H              2.4140441595718025              1.818677185560897              0.2933437969924222
H              2.025859259801418              1.5555314639349007              0.8515933600035736
H              0.22552259035527414              -0.3948244464151524              -2.1448478391240164
H              0.0748453072259227              0.291766340296046              -2.4339766490954955
H              5.342337481949894              2.4134780739242183              1.212899508840233
H              4.601777483855995              2.3774931072195287              1.1348070448312182
H              4.175578337578887              4.805316874510851              3.1115921496543586
H              3.9697500571558098              4.2379676131683395              2.600952447781148
H              3.2116261438590716              1.4380273209363794              3.379195276407293
H              3.1620075949547877              1.981880028154983              2.8922663509010276
H              3.0706238539554573              4.2109655459329876              0.49833811066236994
H              2.5639408641003856              4.753535382722411              0.47103513364833227
