72

H              0.9651024363492426              0.8862928563465913              -0.5499244146827259
H              1.6078068274886863              0.5074097469533496              -0.6786365547072751
H              -1.0082175193360994              -2.2933403273556143              -2.4562267720573008
H              -1.7172032418680327              -2.5144912412689444              -2.145918592165584
H              4.2373879959451966              0.8969494333115637              1.3789422113782657
H              4.538571124933122              1.406060534971062              0.9766332348362688
H              3.768052298002575              3.7262584369098395              2.9882827034709827
H              4.085906322305694              4.326961177857825              3.1330017206527576
H              1.3666095532940503              2.1375348767244295              2.808358434833662
H              1.6774745685398653              2.534407176821221              2.2155403851054896
H              2.625589329303326              4.1346538560945865              -0.22877818666774613
H              2.2734410073445273              3.8563144490065033              0.36707117844298487
H              1.0823174513613247              0.6596393928399102              -0.6221777529525127
H              1.523403584852465              1.1262495141639488              -0.3093035740560165
H              -0.7698613285220425              -2.3128831499093603              -2.0530607569870787
H              -1.4402469174415606              -2.2078267447956788              -1.8339542386069367
H              3.819176876081036              1.000739678953205              1.3473805928259108
H              4.075394045070761              1.538641292765692              0.8404095540244364
H              3.9297606043479836              3.5440664296448556              3.058183493679903
H              4.371757504474288              4.071832412341636              2.8540156851077523
H              1.8987129617232055              2.239188880797506              2.8745865967980935
H              1.3124229074899127              2.3046400167704046              2.206793727574241
H              2.8171999601875917              4.107151275570156              0.09856577609014602
H              2.145545042013728              3.7158121042302295              0.3530643319425011
H              0.8593276923662201              0.9314254872917459              -0.3622285743383116
H              1.626251604017484              0.9713515242494839              -0.2711138669359538
H              -1.0690846479543055              -2.4775204007014513              -1.8363730046172602
H              -1.8154058769440067              -2.3904463178955417              -1.8782513341678384
H              3.5729326309669958              1.1694844690641775              1.4124887168203972
H              4.2189028735035725              1.3913341196292657              1.2663457286839634
H              3.8565204450410353              3.692328152896432              3.0071079001793963
H              4.526417783750959              3.941049798833816              3.001004581269826
H              1.6583517837930803              1.9365621632488652              2.7813337889756644
H              1.49401263323002              2.201691532939531              2.1195577626849778
H              2.9205894156646393              3.876145559419596              0.29591727818090763
H              2.1539530227347576              3.8236183176078637              0.25140266372706366
H              0.7389249556969204              0.839551818881989              -0.44667156704277244
H              1.4436625759015758              0.9508996473511493              -0.29845012410085997
H              -1.287751136142226              -2.501527829531975              -2.243455931141701
H              -1.999749234100229              -2.6660062061900307              -1.8820005224061436
H              3.8529666681069252              0.7618944712152212              1.2738610814577696
H              4.447614602803024              1.3259605260095362              1.4570473977291152
H              3.4755773998002017              3.7353233200640803              2.9569180191684867
H              4.064610406472805              4.110176111649327              3.1499257624785515
H              1.441795253193772              1.866928845722786              2.6704451833807434
H              1.3021260200429485              2.348842866360686              2.180919701696675
H              2.5252706491371284              4.105790047854844              0.010432147006786355
H              1.9557365070262125              3.7014811514975716              0.1737298888543537
H              0.9726146385657531              0.8553162411104215              -0.6721708860686233
H              1.4529754447388372              0.9885665976604517              -0.1627954999959253
H              -1.4356136050973807              -2.2201166565555654              -2.3518134557497974
H              -1.894411164119145              -2.7526747999120027              -2.1219231367429177
H              3.660543601250842              1.048604608285113              1.381969720987901
H              4.271440715566411              0.9790174492976407              1.030383217269639
H              3.604406095664767              4.044296025455656              2.746442795583769
H              4.09917833931852              4.263716097130604              3.2050481095116967
H              1.9165699387367758              2.1317095701527196              2.822359057913358
H              1.5082297632861101              2.344545436463928              2.2185261339305047
H              2.465973293246783              3.7441136682735006              0.07701318571823296
H              1.724514342193424              3.9637906644882683              0.06720510273899741
H              0.7414785502017136              0.9669695973775213              -0.6397998366944219
H              1.4221669799127905              0.7717646125757822              -0.4395831516233109
H              -1.2759985540460772              -2.228979364668393              -2.2876136464424
H              -1.9671693352090154              -2.565477806661134              -2.198412002109423
H              3.984463281151268              0.8686164549413699              1.1931036675774838
H              4.412815156477235              1.5101024683033393              1.0803430997502714
H              3.595925813138701              4.019623074349627              2.9458368497732623
H              4.194460585960745              4.378979381297955              3.0448353216843596
H              1.6896973891231657              2.1463854328373704              2.947559637198358
H              1.2685262501113577              2.2832273609967344              2.363497679887819
H              2.642813710079545              3.919083378225283              -0.1520975406488124
H              1.9658551112871294              4.024633317928443              0.12007029353426477
