72

H              0.9209520478885637              0.8697365978418714              -0.26346237282443274
H              0.8861315588982617              1.4116363210181828              0.1330609838736937
H              -1.3778232741657919              -2.0998204273065038              -2.0471540113861497
H              -2.0743101960129966              -2.1304749722511716              -1.6814202535042804
H              3.560688452213123              0.9641189001163533              1.12676040605295
H              4.114394505595422              1.517445334287013              1.0181064621103122
H              3.725285929662171              4.004720919375732              2.672771883302623
H              4.3333716772652595              4.099640560225296              3.0169689006432856
H              1.6186678958626435              1.9194545521743562              2.9020097316616673
H              1.7291716646958353              2.2115074826180074              2.160115995605104
H              2.525400781405768              4.0779584185827344              0.3454399996498417
H              1.8958228503562624              3.9976164943420813              0.04648199562850616
H              0.6819651183551351              1.046765149373605              -0.26976483628102954
H              1.3184880776200112              0.7264432195232344              -0.21003972335877255
H              -1.379510976710645              -2.2574519556763954              -2.352709953665495
H              -2.133201015784009              -2.230039962565715              -2.031557136390445
H              3.8011966176121605              0.8827764474702986              1.1676985633083181
H              4.513467989342722              1.3727949341379628              1.1935597252044672
H              3.658740408279695              4.097252465629956              2.607427481735251
H              3.839576175388439              4.085047024555748              3.331276839238476
H              1.3015836021124154              1.9133345581964478              2.4983727964287454
H              1.838538922366573              2.3819475410691315              2.4910810123059255
H              2.5807785171158515              3.938007685196842              -0.23879122785803494
H              1.9705105633067186              4.017265106799342              0.22973143289915063
H              0.47055584462840344              0.8251583807198489              -0.3808746238190078
H              1.2045421287886011              0.8008660316187385              -0.23078565565527526
H              -1.0877706779731624              -2.159372651046956              -2.5447886734713
H              -1.6338659728661766              -2.3055120399261217              -2.0003584165409416
H              4.064054957277342              0.7657730923033038              1.1821083700552093
H              4.305280378425728              1.4621780030648077              1.0674682038145404
H              3.594978501210506              3.915868137594249              2.589580452756535
H              3.7581272508669827              4.401536136032569              3.1496435302325945
H              1.746564507990919              2.1552737671152045              2.9809986739274446
H              1.4023421975864532              2.253974926943282              2.3495606673636877
H              2.487111162377767              3.9457676472858574              -0.2578375640054604
H              1.943496919403568              3.8774666664240445              0.2039497274812991
H              0.6700678357459738              0.9235685102909875              -0.30631223783417044
H              1.2952238641490095              0.7206607006680974              -0.6096107880679059
H              -1.114878347793866              -2.0648934344414513              -2.43392007545961
H              -1.677468718617672              -2.382398635870786              -2.0121279602019913
H              3.6108301688602307              1.2149351870249272              1.2601479680240661
H              4.110045489399599              1.434596572569059              0.7754171024297163
H              3.6771704464018833              4.044603548966213              2.5991906490176646
H              4.2357287061174915              4.286118435986004              3.0133026300401013
H              2.1374832792385563              2.318945365214244              2.9417147402626354
H              1.6846112152397088              2.068293569248737              2.3152830495495245
H              2.6995530486439843              3.8330670519206236              0.15246059613206578
H              2.112359920229401              4.142276264870809              0.3584224892484787
H              0.849584731618855              0.8958690623094508              -0.09602071052028702
H              1.109111953228803              0.8100527942842904              -0.8401425226754208
H              -1.1711448066575443              -2.237220943682561              -2.2512012786357083
H              -1.7205469870661139              -2.3598434485168505              -1.8010700717671024
H              3.7993335025461255              0.9330556491663342              1.0864269651516492
H              4.157001056776182              1.5990408197128938              1.181989234634857
H              3.6575855118962033              3.749243732811212              2.7645649804438888
H              4.25848615661556              4.07321923632344              3.1141981924138715
H              1.6117438956959107              1.9457294462913277              2.8782029046709288
H              1.3605361203099218              2.251901380585936              2.239271206389121
H              2.5860894609831933              4.40354439359633              0.18760278669850858
H              2.1565246756407195              3.9889537617824735              0.6560934468347758
H              0.7811495808236587              0.8614109040296              -0.3239914815101933
H              1.3559476534621326              0.980315670201003              0.10198083662432064
H              -1.2792748187307028              -2.0848093464929662              -2.1232255506086712
H              -1.703600772867048              -2.423911781429521              -1.6678642002590878
H              3.682055279206105              0.8998405850727292              1.3971532113369842
H              4.2151021419248105              1.363109033493836              1.1640237169168461
H              3.90710522749507              3.7567601098234586              2.6731129685995896
H              4.307277499745331              4.1156708309540075              3.166099609451458
H              1.3491143105499623              2.026609787295124              2.6906961963907188
H              1.8540767553579476              2.168681179064411              2.3043987100186554
H              2.431618404896636              4.295768366182346              0.5276480553912625
H              1.8999294695047009              3.8455749864692588              0.3601911155399092
