72

H              2.2481224413200533              1.468123561001728              0.6212357525192441
H              1.6695044448176817              1.683282285275694              1.0106041576885683
H              -1.048941861126981              -1.056703300493664              -1.6712744933750998
H              -1.4146673959859921              -1.2470320037944378              -2.449262373335189
H              4.84830260528396              2.132719689461835              1.2382843257924905
H              5.187152294223005              2.7259727233437774              0.8572065454040542
H              4.393059036608197              4.934158713894716              2.5885378660842306
H              4.634752747982441              4.416730791111421              3.040575670090081
H              3.1002303666552553              1.5090324683392067              3.900284129231139
H              3.1259155034969726              2.150540521859512              3.4738453339188085
H              2.8941111282926015              4.499871665206162              0.8164479500280541
H              2.8550747119836566              4.038478599185159              0.24228070541449212
H              2.2681427239264487              1.288416312923197              0.5206267732783051
H              1.7086765151217296              1.5775858481746712              0.9464407935009482
H              -0.6880581239811298              -0.9972358526312847              -1.7703825670121884
H              -1.1078880692985515              -1.353424443992179              -2.2525381671186255
H              4.781887757687785              2.3120407211976732              1.3394983720224591
H              5.131376066739749              2.4427066910114696              0.7146615474106851
H              4.344108338031225              4.933665369269286              2.8189377193652962
H              4.411636859341324              4.161066717753718              2.8738413002003265
H              3.4017285284434897              1.7563458536525194              3.6887341142945145
H              3.053536319479476              1.9246371282775536              3.1163618567571216
H              3.3127427583390867              4.5194821541151216              0.662098505921958
H              2.6890373438380495              4.181736265019336              0.3335215945757087
H              1.9239654694933326              1.297030725652019              0.7195138993894478
H              1.8983244860529565              1.9808388313349725              0.6225317815333985
H              -0.7003644464271095              -1.2361678082792782              -1.6329229798022245
H              -0.8915888522319663              -1.4084885004368122              -2.2473074946456104
H              4.942137154526384              2.479253082439327              1.5766487043767328
H              5.136212211829161              2.287526987635256              0.8848360654802763
H              4.266804660009707              4.819121001144902              2.772141082331955
H              4.456405808925184              4.131688122255992              2.8666086758714004
H              3.1831646543071153              2.0308143587081338              3.805721150910467
H              3.095199232481591              2.070124097563904              3.099907202850719
H              3.2680210858898695              4.708507252472698              0.722797127559827
H              2.962537575783669              4.304289445109831              0.21443747251511955
H              2.2960578997396732              1.2031340476455774              0.8924195289647239
H              2.050660239257304              1.653469363449728              0.38947387152010976
H              -0.9794445202300814              -1.3135466306025936              -1.7782970287227178
H              -1.0779861004567657              -1.7592120876582615              -2.3861139736247425
H              5.088394624112144              2.173149862138591              1.560917686562687
H              5.056443946042989              2.7842921526028714              0.9861420866108656
H              4.422803117591213              4.744136841877156              2.6384791604572686
H              4.375597679194781              4.0392549137243385              2.9768209923494204
H              3.163445002963365              1.7963028319003456              3.8175767706963004
H              2.979828764023384              2.2142068394405463              3.2540944641367386
H              3.2112084538686867              4.63317769141975              0.24062995197412385
H              2.5615407626320184              4.314811376061816              0.2927422693620302
H              2.485641830433992              1.2060630018132459              0.6853715875146351
H              1.8877055764696207              1.668545876336882              0.8859251282081205
H              -0.9834639912993829              -1.3265256752038928              -1.9317663667869585
H              -1.1479067914027385              -1.7878131750469388              -2.489935023055056
H              5.004755615126054              2.3397484014732535              1.4755271676592843
H              5.4113417380632685              2.8086300163344204              0.9596708915792421
H              4.510048873212103              4.81145371370875              2.919945152979277
H              4.418196597972702              4.04616525258771              2.76276319038513
H              2.8273122254607017              1.5176269026318805              3.6212637728637547
H              2.8913532481017707              2.055304842582361              3.2066819597464185
H              3.0188471060293844              4.498418877798573              0.233105581745881
H              2.4768372709102526              4.085571068796016              0.589296232332305
H              2.3289967912912513              1.1376710775760235              0.9172802186858453
H              1.855792983064822              1.6952347070005944              0.9056580621654093
H              -1.033443225749677              -1.2485083754942834              -1.661168037118782
H              -1.0352570997455455              -1.6647676800940663              -2.3946043967215145
H              5.058327255518283              2.4197509793515892              1.286139329579577
H              5.0672095297217625              2.6828164895760827              0.598870697217347
H              4.627009468761836              4.6522384994192665              2.799218355793426
H              4.486194919140222              4.170636891519281              3.265390019343688
H              2.7601820524320724              1.7940140595724312              3.808562379502575
H              2.8892332866553962              2.3757265732668946              3.45286948110228
H              2.9596310092321176              4.707015131764701              0.5732183386780785
H              2.7505638031833186              4.043488569348674              0.16902744595220442
