72

H              2.149169084579365              1.3018336775111006              1.290166464299634
H              1.6624217827699077              1.4299624787835437              0.766568808877605
H              0.23488954348497693              -1.1477289050678776              -1.798314803907387
H              -0.45308991117853836              -0.8587530696184974              -1.4525713807292324
H              4.714132398808328              2.143931868549202              0.6859337728401378
H              4.761453763572565              2.498672669195181              1.302394046784953
H              4.102493400352692              4.498890300430947              2.598874642303671
H              3.9943099380859026              4.961625994592397              3.208268683910727
H              2.845033947372979              2.7745964395255602              3.78377386702875
H              2.5957198903999394              2.03113886969211              3.9588946927992947
H              2.7934662426216246              4.341506243225037              0.2997951954891788
H              3.408690588620211              3.953947469415321              0.5218594419498894
H              2.2836537551114735              1.3288105236137127              1.1629587679813058
H              1.66839671650011              1.4064776190482053              0.7510481397238428
H              0.23954139220650011              -1.1047894995665433              -2.1292817417385854
H              -0.23010941119828865              -0.8345451156418464              -1.6309791597022734
H              4.659978081759983              2.255088391441689              0.6342846715472051
H              5.167427930328308              2.2183401126331717              1.2095473793684022
H              3.5434533913805772              4.793937687935674              2.4221057964080805
H              3.973652471227781              4.867228477043227              3.0730209330650093
H              2.3234545251567433              2.4050145572838897              3.6041562666510094
H              3.0165694912820546              2.2406969052027494              3.8724587536170048
H              2.643330787240946              4.361839829804378              0.6297756881911539
H              3.1162839490705627              3.824926004682569              0.5110643405974755
H              2.4784736041081286              1.5683989858862106              0.7268080307255814
H              1.8100233435653716              1.4267975428371966              0.9449234105166795
H              0.6538857801067878              -0.9937179171897559              -2.0665323798804827
H              -0.020669508221598284              -1.0405510322471159              -1.7252824572052157
H              4.719166980682897              2.0508157274083776              0.6682301010526961
H              5.044239626755756              2.436879600567378              1.29078291101574
H              3.4708251250025453              4.499395578035092              2.510787089671144
H              4.033466888435961              4.666426605442067              2.9174400313062883
H              2.5993600161174104              2.7749370785514773              3.5262241694262957
H              2.9946594834183555              2.455865911041406              3.9763494979982243
H              2.5323696446587434              4.358556276719167              0.5744343009942491
H              2.958079068957324              3.864162461130818              0.20845342710517956
H              2.211051950310571              1.7197984402352244              0.9896931113576047
H              1.7889959765872196              1.1948980517847678              0.7885916216988946
H              0.6625046828040239              -1.1343423299438176              -2.186709075344559
H              -0.07967409301664047              -0.7538437823682944              -1.8442883374117511
H              4.768483464312401              2.409963712831585              0.7545513460246558
H              4.913385863287142              2.139195642660321              1.5146118426737516
H              3.549154432761768              4.573488794769276              2.5058579292498466
H              4.167822228953307              4.646190289076033              2.880835800397648
H              2.9871463540727214              2.415370093858119              3.4292686537868136
H              3.176557984988148              1.9544473336779473              4.055751091534457
H              2.4909534448588686              4.308732220586667              0.5890172727407103
H              3.001734703598851              4.12895744106137              0.01977593964768571
H              2.170542784022623              1.181097865362179              1.1285122434198527
H              1.6195769248808092              1.503080644250436              0.8983690001409417
H              0.7116129006307715              -1.1931001939204353              -2.004915053842879
H              0.29311169782532026              -0.820198361681825              -1.6765062749983368
H              4.854928742785205              2.2287387478738165              0.595843893784167
H              4.958911673970782              2.1518337715712534              1.2924012043654016
H              3.6040713039310326              4.357975349840543              2.809365239672829
H              4.307579356010974              4.525043294139397              3.0342405214270713
H              2.9806764937046615              2.1304366485786197              3.4449969440255224
H              2.8832741812834746              1.8264753444045934              4.076385395785796
H              2.9355253852869994              4.5969006988217105              0.492424825113811
H              2.8018731000633994              4.029409796467952              0.08597671542009087
H              2.0052048085339345              1.4304908509316936              1.0968083637663515
H              1.3414330557819545              1.7906775597263653              1.0374422888231987
H              0.5596810900956862              -1.262062667828095              -1.5619992617235054
H              0.03513683702838428              -0.7957310474736048              -1.5731193963869456
H              4.879651233602581              2.2092085678990183              0.7414686521952761
H              5.185909508663515              2.1316386588032388              1.3982864942377558
H              3.8502753026493206              4.369382119134228              2.8353750702551777
H              4.4694332173583575              4.698287202080882              3.1347819040340155
H              2.624944948817817              2.4312516556514074              3.662672039418232
H              2.8766131947827462              1.990224963068991              4.199333331028365
H              2.916409258923534              4.553649605290705              0.5909134380798421
H              3.251706711188813              3.998500639038243              0.37112631635997073
