72

H              0.7091935197799858              0.8435556596640539              -0.4263803525017503
H              1.0653113445954612              1.3614712493289862              -0.07942361057111091
H              -1.5176029739934043              -2.2023752005706094              -2.34001760617969
H              -2.1270013430850008              -2.2621241954420346              -1.7458168352020917
H              3.592943350202771              0.9437696960082393              1.1153664708421676
H              4.154282802822411              1.4013595289872893              1.2371290990277672
H              3.4661509823366856              4.044189720059416              2.5835267849183734
H              3.956232597617028              4.051771027241826              3.145785810031857
H              1.4636038327651373              1.8343672850457948              2.7107064982485225
H              1.8869177116950455              2.303995019507645              2.241120573345559
H              2.551756157259731              4.045247023865405              0.30061101756725656
H              1.858496396073309              3.8692742973855885              0.17368865592774374
H              0.6726290978862272              1.0395917325968194              -0.4906668893124951
H              1.3098485980982857              1.1151000156719244              -0.17424097923192017
H              -1.5514546598339032              -2.1167802448534387              -2.4728326498722097
H              -1.9499212364915337              -2.3249048996430792              -1.967217156919965
H              3.4956563900873245              1.0609097557723879              1.2642742685920465
H              4.2472015123185125              1.1196644266934854              0.9603477239018805
H              3.6761860102819153              4.42094055523494              2.5370963753667843
H              3.829681993621875              3.985418595694705              3.092624797468577
H              1.6461594084702822              1.8652477926287399              2.601060425313993
H              1.8775856909382895              2.504899879452711              2.2879500526959218
H              2.3345817215318183              4.045431506759807              0.08839057009932418
H              1.6847422798974934              4.198503220663433              0.46865652772495175
H              0.5875081447680646              1.2386364043075881              -0.4633352140960049
H              1.1191981524847772              0.6938805923265401              -0.3323575733867668
H              -1.3626584633767154              -1.8815266608540393              -2.318795399191809
H              -1.8545729323040587              -2.3407826107458214              -2.081954704188948
H              3.9827777149584698              0.8192948774516674              1.0426861767518671
H              4.120395276039675              1.536128844014553              1.18602118471971
H              3.732484559014901              4.148633616419451              2.538385386501056
H              4.001416917452842              4.461431477036539              3.204786860471897
H              1.4934189230165917              2.0635766016333936              3.1475567158881694
H              1.4963584266555174              2.1293208932454424              2.3876698714627205
H              2.467749257418458              3.9362739440884478              0.005400511727033262
H              1.780602860116441              4.069461528130339              0.26695782935036394
H              0.7614123223822652              0.7615002297566698              -0.1687322087398403
H              1.2643501154031005              0.43399824065432085              -0.5892348110571035
H              -1.2144582369403927              -2.0424426138958207              -2.5943324912395083
H              -1.7207448610977247              -2.1555368331221305              -1.9196960639981646
H              4.161354726175727              0.9644451105477733              1.138681219756179
H              4.360201960071566              1.646719045341655              0.7717482990413407
H              3.7287287679463037              4.056513908963392              2.5646647836094933
H              4.102642294209104              4.393074326110578              3.0965615669182025
H              1.8406345936035324              2.1359564866943264              2.9513326983633594
H              1.497623530953415              2.191736262369247              2.243828548925579
H              2.668897286977943              4.264532497386157              -0.013338275785662827
H              2.0945090456296565              4.1864809112983155              0.42669573117178083
H              0.7735433868215277              0.7192338773051888              0.07594165060084658
H              1.198762218396294              0.9314632173385522              -0.5500608913632387
H              -0.9953739012471869              -1.9621310479718483              -2.2117952777445424
H              -1.4998860470514317              -2.02190766344558              -1.6920666726314944
H              3.5922626604584513              1.0546412883217666              1.0478351712985936
H              3.9955318883866107              1.687609922588948              0.9006118458421787
H              3.9698425174072196              3.6177600533403864              2.6306566336521437
H              4.082132221868327              4.004202259122381              3.1738973308243232
H              1.6750291852578822              2.2041528218925905              3.0102578285213757
H              1.6019399300723378              2.1074897158422976              2.2347180515232825
H              2.5080013780326227              4.150244241699727              0.04677277559169713
H              2.199774209517036              3.9255011621068077              0.6242683031348545
H              0.7433629371771384              0.7448678646413252              -0.15440245123178822
H              1.3925739751449122              1.13287797249373              -0.010997953520885288
H              -1.0668714935577017              -2.142955366346686              -1.9752609402842563
H              -1.7385442160376938              -2.1995326836065288              -1.5450690510298066
H              3.577618375679995              1.1742549172214678              1.2931070484073748
H              4.167408333894062              1.6577100255766355              1.3071966800634556
H              3.866253131161223              3.7755935615434955              2.5285674627797694
H              4.363292146461177              3.9826586308048095              3.033959457265807
H              1.4453575125216773              2.0600621435425706              2.722783460574241
H              1.9624362245178055              1.9987261731529358              2.317496712109749
H              2.688245865751258              4.151080525049562              0.6124264630134578
H              2.093322436399772              3.899610891106835              0.31937756392759353
