72

H              2.3834644084707146              1.6996395426383049              0.9819946755854745
H              1.6581550218062913              1.5119281711305488              1.1991451784362013
H              -0.03826035137203722              -1.0912094751899413              -1.964481149794462
H              -0.6772617119810269              -1.122844341456958              -1.813986052204221
H              4.778165300510122              1.892462105947611              1.0805936693952154
H              5.028870182378351              2.5398323583512212              1.046543589109032
H              4.101255052997497              4.859746637974785              2.5700756272512684
H              4.055652948400945              4.659987267250423              3.281252707755219
H              2.3473199579457136              2.252866591786408              3.816964533066616
H              2.929960550271999              1.8525865286229501              3.4458611080841584
H              2.7787963073836344              4.305963505645125              0.2750827597957277
H              2.990897776296285              3.6222759962556963              0.4917563971302652
H              2.2522044262515304              1.865498162313477              1.3234084750195265
H              1.7534291865625222              2.080874732625698              0.8510164897448226
H              0.1825096668424189              -0.9927302095849069              -1.8270338199065332
H              -0.5816564134975878              -0.8916110810896174              -1.7216449217098344
H              4.5697978888114              2.0658135251638674              1.15526027191472
H              5.022669863056494              2.597847785853726              1.3876428655891784
H              4.0455294826733095              4.894704930409382              2.48170624059454
H              4.465093184089213              4.849130481483713              3.0539680231841038
H              2.541777204420023              2.3282560780669743              3.5278955039579096
H              3.2670028868802623              2.13275800460405              3.3172420927459725
H              2.9670892589705353              4.474075936240896              0.5998018372453905
H              2.9019971214419082              3.7459190697023956              0.5729933868053895
H              2.2875697294774526              1.5966840843782915              1.1160044301268925
H              1.7861743994738044              2.049781322991116              0.8289041614323864
H              0.07929394995709552              -0.9993125947323717              -1.862084874392909
H              -0.605404442545835              -1.2684051092044837              -1.693096935083176
H              4.623527896576364              2.0099424037800753              0.9481276042286756
H              4.7782025426184624              2.665355184466545              1.1626191913210504
H              3.828043071482518              4.878916101197991              2.510061921361938
H              4.30941771326541              4.720351851163344              3.094365535019884
H              2.856061140741723              2.4877989688258206              3.577963719610249
H              3.0345576452871557              1.89742876926638              3.208400983662919
H              3.047892082593037              4.418055496150738              0.11084237210259013
H              2.794044160312655              3.9091152118118204              0.5704445709828257
H              2.307972060388398              1.6711553227644604              1.0156529998845605
H              1.8699307237115974              2.1053178030545148              0.6564254246790725
H              0.1170158394780232              -1.2670023877062238              -1.9691108703798148
H              -0.5289179981054465              -1.5743986457990882              -2.0506125535237403
H              5.062961774323089              1.9277644760812658              1.3769106736880385
H              5.260826568642387              2.778667194876596              1.428412051098415
H              4.085962045982373              5.018468120069422              2.484263982107972
H              4.150944216557455              4.454595766040304              3.0117561562456663
H              2.3890671719263636              2.330284590847752              3.7834368167083072
H              2.8185947485304146              1.6816044807743207              3.5152098215865584
H              2.7804618220238635              4.3556150287744435              0.15798608748007448
H              3.027468068713107              3.7942094056037523              0.4765911821217385
H              2.176153124963096              1.221789570469027              1.1669052957610333
H              2.112776105488403              1.8516299148752822              0.8224586332798317
H              0.10261084226333674              -1.1960464960952746              -1.7697241797869934
H              -0.5994709576449727              -1.5540818815634057              -1.9885588655558972
H              5.098680748570123              2.2234720950626947              1.1481363833343847
H              5.092556107262362              2.928396466919247              1.3186014392403174
H              4.400548341790821              4.627070044829844              2.5038739856291
H              4.377409243136162              4.7245742471446786              3.2151016876573233
H              2.2433710888412994              2.445877944910828              3.5985938068375076
H              2.9022398499606314              2.2149667018960972              3.744479864946554
H              2.7049523846544257              4.44383315051672              0.2867556982240065
H              2.759982153429634              3.718765168348375              0.30245272271130086
H              2.3036182603138236              1.608799816330106              0.986142011959831
H              1.6454964772265088              1.6617000800372137              1.349242040512644
H              -0.18663546167517298              -1.2707960291565332              -1.8744556131461922
H              -0.9310052188799234              -1.1549628793544247              -1.8783629576049266
H              4.715914900165858              2.4261489478735188              0.6395970822885897
H              5.19121250193903              2.559614553085238              1.1651513940154727
H              4.130136716116838              4.836040752914863              2.4969668478171174
H              4.356654514071185              4.85329561153832              3.2490146895090852
H              2.3848070921271467              1.8144615745579542              3.825821050779317
H              2.985056413783034              2.2250616002651173              3.5194152063502915
H              2.6588745185424814              4.43368585417011              0.315617188481128
H              2.829818715697184              3.7593174329058563              0.6142992464865058
