72

H              1.1132158438758442              1.024653301088435              -0.43294076335016274
H              1.3631165117473423              1.1328374731777113              0.23199433287239793
H              -1.6572726185477882              -1.4065590830122563              -2.2686104413126422
H              -1.893104683658527              -1.5719410229860091              -1.5692532599025266
H              3.4514044483056034              1.4958628799330511              1.0767484296229328
H              4.073927363791702              1.8829722255425232              0.8738095107067614
H              3.9176141801951037              4.633356478107365              2.650981093654349
H              4.036397969816794              3.8060649483572537              2.5810284374497274
H              1.4158147548163749              2.36495622377019              2.454823212067106
H              1.9592465582294498              1.8978079029526025              2.6451203697097476
H              2.2052210022913363              3.8424698342220736              0.7459025694672193
H              1.5168788488301423              4.196952282528638              0.7157309877857523
H              0.9888874599831718              0.8810427086638255              -0.5851600263282389
H              1.1382177013755814              1.0219419753666286              0.10093565983205709
H              -1.870555075838377              -1.4782516059593955              -2.5446320785354266
H              -1.9755937085394428              -1.619357042843672              -1.8721211436693146
H              3.8406923823691064              1.4114473307083926              0.7979049099832108
H              4.159983593876303              1.7895496860172238              1.276588585937864
H              3.8276670519885307              4.724646765827719              2.652365074943597
H              3.5221591537433734              4.03555154472148              2.8567595967549106
H              1.0427989990876387              2.3282743101652827              2.5794940602503216
H              1.6740668837967232              1.9684106476872143              2.449444552599316
H              2.1754188688760308              3.982360016458915              0.4585350672388294
H              1.4412643294375957              4.004106455264523              0.6185284636366652
H              0.6976026575637809              0.6574856453523918              -0.3573792366288317
H              1.2603074881300613              0.9066248034395629              -0.03226368049668892
H              -1.7260837745491862              -1.378461064251383              -2.766661949128211
H              -1.4674717239854387              -1.5831911771715834              -2.074567010388696
H              3.8817721251514863              1.3288923345698695              1.0260767119566014
H              4.367310613993451              1.9227346820225262              0.9613040008811471
H              4.14904132523261              4.803795876277577              2.774119370550773
H              3.5396284583565913              4.273327590077081              2.7029896322699964
H              1.1894891432965662              2.2499861721631946              2.721610721455769
H              1.7519337803623225              2.0877360973464905              2.40622847285888
H              1.791870980779804              3.82298849829692              0.18076730163450003
H              1.7016865139258772              4.155684343112382              0.8695937634353853
H              0.7089585917625467              0.6442186477762758              -0.4578379825085767
H              1.0970859378131552              1.141272301515965              -0.005397372663573347
H              -1.4265880499464851              -1.0959780037885116              -2.4133789071608187
H              -1.310329277929907              -1.5240095352320018              -1.8299518936396182
H              3.9021691268506506              1.5211958014250182              0.6754886351803423
H              3.9272503075120024              2.2090542661739208              0.7850799000841697
H              4.36813698109611              4.509665992966833              2.5409200712114046
H              3.821228747661061              4.212217545875994              2.9449716945180135
H              1.3678384902002663              2.4643938953562747              2.931963017599469
H              1.621737203796733              1.8145765752148293              2.625055778261485
H              2.108358719327419              3.8707952076643113              0.24955941102743845
H              1.7153043861600163              4.166616592546881              0.8270452031065597
H              1.2327332697328295              0.8157327132486646              -0.6281688521904046
H              0.9390695641406137              0.7586134899208578              0.08284171517941838
H              -1.4548090596919796              -1.2195711240406362              -2.3119246410880034
H              -1.4242715100425745              -1.7461128970721094              -1.7271961217057072
H              4.029155504367984              1.5956488453797153              0.7112136244528706
H              4.332908874258218              2.1151964744401153              1.159432587270307
H              4.384459903475558              4.226685438615598              2.663419240402638
H              3.800095282036221              3.918864227653982              3.021225974070132
H              1.1109310648464532              2.3491574966740725              2.6594825830539213
H              1.7676714153526547              1.9685079394697855              2.6193178254654006
H              2.401943490412251              4.167334287746184              0.5548722297662404
H              1.7491399148009081              4.087833147237989              0.7882975529167756
H              0.8748816110018542              0.7517320236508304              -0.3157383689720479
H              1.212461243083713              1.3673295942249701              -0.09631196198125352
H              -1.4716803729049472              -1.419277421033354              -2.289678553970573
H              -1.4206224666724372              -1.5118363056743667              -1.4799667730786443
H              3.741471856852071              1.469007235000018              0.8261496569637707
H              4.221036725582854              1.9728801539918566              1.1007316411858334
H              4.208653479259614              4.253159257212769              2.690006295411487
H              3.741007679688132              3.7118595989965915              2.86536658892113
H              1.3214621155778776              2.2867597340605244              2.974682701372622
H              1.4345706514724046              2.0123911646311017              2.3833367545296364
H              2.1453606853651426              4.040027956477007              0.44538192652095654
H              1.5878577387383384              3.8785092710777924              0.8994190689032876
