72

H              0.860083349730637              0.9825746923691905              -0.4414033575382365
H              1.506828538316986              0.7793391803207939              -0.5725610032614585
H              -1.229165644050193              -1.9367113563867613              -2.4560614166661545
H              -1.5700278479533056              -2.326581669179589              -1.84869435820012
H              3.502906074656833              1.2004029393149558              1.1993432487237785
H              4.160735015838314              1.4819390565538813              1.1581066487029468
H              3.860826131372903              4.153992393168673              2.398674242633822
H              3.814988728493591              4.012469722333674              3.149166579137331
H              1.4106899108186042              2.1210487337554014              2.8375190983335803
H              1.9962214966450156              2.1865966867383357              2.4139843779787657
H              2.515955954050971              3.999360171070832              0.2865732853334163
H              1.8663596473329132              4.090133487586945              0.6931485621706548
H              0.8783081682853624              0.7536889059196618              -0.6867989226819037
H              1.2378606634759228              1.1334469493700063              -0.25202756467944354
H              -1.5360474952153464              -1.8508675247887258              -2.2518650901393764
H              -1.696622688049621              -2.3348495853718982              -1.8419336432143418
H              3.6738422510772644              1.0188406708095552              1.0925003503934065
H              4.006804835733871              1.695806805207707              1.135692531208668
H              3.6615133121671737              4.220048756331606              2.4545798701790336
H              4.165770241515215              4.262676817890191              2.9737084308481507
H              1.6264190121136377              2.1004262945575864              3.0575543731210573
H              1.5933292543562059              1.9487459868344814              2.3122242114402245
H              2.499941840278446              4.221098494352879              0.6752790507737173
H              1.7630274352661028              4.075120382792141              0.48873607051386925
H              0.8540296840621013              1.028671757910162              -0.3506349820728661
H              1.5372846658814274              0.6991154189362113              -0.42353128241035115
H              -1.6693469812003114              -1.834649589016436              -2.3542375394940467
H              -1.9826750191320242              -2.134847271505104              -1.8234645931134614
H              3.5138559658712527              1.1197111303957858              1.0938103563228172
H              4.056656367230691              1.5583591966920811              0.9133155357607646
H              3.847346852554732              4.3384926624178615              2.479359103498047
H              4.096738008890791              3.962868632823079              3.114999251302382
H              1.622770349772287              1.9120640704355183              2.6931844049873184
H              1.8860147395814626              2.3213031741383574              2.134840882144915
H              2.456396327549439              4.309244228034228              0.4369474712283212
H              1.75761991195756              4.29860918843512              0.7802586551867275
H              0.6913942901386059              1.1270824569183548              -0.11528115623780111
H              1.3562073907113246              0.9546897802980883              -0.3953241761932829
H              -1.2870652307369803              -1.7799266317967146              -2.156722014308999
H              -1.843615332199521              -1.9016590536347564              -1.6142626933251794
H              3.794077388273458              1.0308365088818499              0.9432115698373689
H              3.9942671311707785              1.6766964414839394              1.2834907178283232
H              4.05534665588367              3.9729544995176114              2.4967631675045605
H              3.9567648000400664              4.051173952482407              3.2102568997593246
H              1.2156148018832518              1.9814259093752307              2.913992883175093
H              1.6834431697488066              2.165818527133552              2.224442368224561
H              2.3280247747337706              4.264417284248741              0.18664517087063884
H              1.7989295758939192              3.931815208138938              0.5801520613919485
H              0.7640618300094346              0.8692185205195946              -0.425587581408452
H              1.5021631799564175              0.9772928919386922              -0.13770108633986866
H              -1.297264220652176              -1.8801864212344823              -2.2854792141573084
H              -1.8114682442210763              -1.8838577593977561              -1.7856788859730859
H              3.9469792434399236              1.0988348432205923              1.12416495216194
H              4.304758189782526              1.7234647465208306              1.0276532193222223
H              3.899453963202053              4.132779493302622              2.4112525768969153
H              3.959045503187532              4.253310689357816              3.111729856682559
H              1.39541075298064              2.1243371166625304              2.8317665930678966
H              1.9959745732482796              2.003866719480134              2.4103734973477957
H              2.6653710404320026              3.9526065724941195              0.14978077125501668
H              1.9453191534262846              3.934800065564877              0.16116412003839062
H              0.8301249190839943              0.7038138625696594              -0.30045396559210585
H              1.188788873819405              1.1851663365566625              -0.7060662347419873
H              -1.3420842352743452              -2.0747724640959246              -2.520228644577957
H              -1.6840384803635726              -1.8315857253319694              -1.87732845900999
H              3.712899189292684              1.086422760097558              0.8486515213912038
H              4.208944633312279              1.658114667553632              0.843023814149903
H              3.5804353973816454              4.132447761409328              2.4424284905510976
H              3.7182165421262323              4.041519647207323              3.165821135644578
H              1.6660834044186652              2.0632210432539986              2.9386955773128314
H              1.6924101323150267              2.274433103675599              2.315249691702736
H              2.5582737918609584              3.999655612115393              -0.1548460571498242
H              2.086306686963014              4.028170509325714              0.4136578289817771
