72

H              0.7481145962082726              0.6918978404764596              -0.44371154534819524
H              1.4070925272343775              0.8383899345647546              -0.4841800337603744
H              -1.3705196766424395              -1.539262799384693              -2.550504304195161
H              -1.527195894241928              -1.9077927913830088              -1.7891808299903644
H              3.9749912493920707              1.210413226835119              0.8253581311240246
H              4.080630888316718              1.9627202082822472              0.6545730517101045
H              3.9638910093060598              4.407853294256644              2.3275947794302656
H              4.051830161243621              4.289181994298156              3.05699616784348
H              1.7458680502674424              2.1475869972407406              3.1318426641740738
H              1.513816091009707              2.022500619205713              2.3879505413604756
H              2.487067945027477              4.130637267559596              0.17709987474515948
H              1.9344773965134705              4.324060495635572              0.6355525251537494
H              0.8739492594860003              0.7994713800470671              -0.2932458252673578
H              1.5360329608383174              0.6737731253659073              -0.557135986567943
H              -1.2581801654048113              -1.6377077221376992              -2.315548483889229
H              -1.5797619627832724              -1.9312426396138225              -1.6813092350437904
H              3.7007457114028703              1.277166794946262              0.768655333047686
H              4.03023541590666              1.9113278036601187              1.1594363933565035
H              4.1562536880420184              3.9211076591438503              2.529387396621694
H              3.849775694994186              3.9086374658976215              3.2187144495451636
H              1.2760008507705898              2.2010940965562544              2.8477488484067837
H              1.8346839208615775              2.0736230721506757              2.3964740283249073
H              2.5113095129250795              4.222976073717001              0.25943207794515905
H              2.040842688256721              4.051840209335309              0.8567989941163783
H              0.9883988610563538              0.7605717809441943              -0.41074624719835806
H              1.4546150746527646              1.2384647883527036              -0.16707965194595908
H              -1.2758900741864367              -1.7939520018081263              -2.1208838836597357
H              -1.5086345730334616              -1.9192643910704863              -1.4431150436687263
H              3.6336977734553795              1.2486198376169788              1.1057179879720604
H              4.158692011236941              1.8151819195064958              1.2366743395254933
H              4.027764979341668              3.988200806418257              2.3285740601996388
H              4.010046830127252              3.8773398463710587              3.0610515216600205
H              1.2847408115372934              2.182757707090574              2.7643007535543727
H              1.8409021029636488              1.9292967895846522              2.414919784366085
H              2.433509433353459              4.30587609338483              0.7070819100259174
H              1.85342487159414              3.8406519651866886              0.6126682375896457
H              1.0609421618991863              0.9641110044901672              -0.642933011866793
H              1.6093107758109173              1.3115124980917259              -0.2748842208910042
H              -1.646801874276086              -1.7403221376677638              -2.297943873357827
H              -2.0996021359232593              -1.9336353907414081              -1.6271367931878242
H              3.3453818965807014              1.296439520045094              1.0799017985325075
H              4.002966249640521              1.597039535403498              0.9693640445181899
H              3.735856389634001              4.4206829442675595              2.434524015510654
H              3.955167178015367              3.900241150957839              2.9376046561621143
H              1.423054140363635              2.1729728715367678              2.6170395494846392
H              2.2136259611721445              2.0582653025293642              2.425066099914414
H              2.433750587379362              3.9166513831329914              0.6181972223012637
H              1.7647674306463181              4.04654924403641              0.4497771327255587
H              0.8468126152688336              1.1429845261557041              -0.5949779896690257
H              1.598415167408197              0.9646535666215008              -0.6232376626759886
H              -1.715582307373554              -1.9434816146555918              -2.530203214623519
H              -2.036209818738647              -1.8875884307715998              -1.886353258077724
H              3.60949262194323              1.129329475303911              0.9201231156044827
H              4.2164779411018944              1.5347791263965411              1.1710689441299258
H              3.700122847624146              4.552519537924903              2.5690302842375514
H              3.6262568709409497              4.000038449740727              2.962301193364895
H              1.3942789089868934              1.8672097380337391              2.647557882882472
H              1.6854692576012995              2.41208870243022              2.2622759937565697
H              2.2773176243537              4.1405229771825285              0.25454287059137337
H              1.6778874652586044              4.19680295258784              0.6120416426403481
H              0.7576703787392519              0.959969846514198              -0.60385698347628
H              1.535800551667541              0.7918759145897741              -0.4904482403795296
H              -1.4847882359918212              -1.587941199912579              -2.581886999997846
H              -1.6671930420447936              -2.0547978124490025              -2.029128436273212
H              3.883603807300602              1.0051030459756383              1.0521657013645709
H              4.153963941959173              1.6764169567897602              1.0979839609870208
H              4.005960045621628              4.452595267347452              2.455901263092658
H              3.6343428434535525              4.400827579930735              3.12349230951135
H              1.3692941511408603              2.1128685655546007              3.025932882518106
H              1.624412406053861              2.0984151485803553              2.416265135541528
H              2.1987796116857314              3.8947463777829148              0.07953076551115186
H              1.6996740503766723              4.06264704165567              0.5868891352677085
