72

H              1.3109489558287541              0.8898878837797002              -0.37838325542144424
H              0.8557977757749706              1.1249430159123919              0.11412665003521633
H              -1.1141267204740404              -2.2870506022410555              -1.886448316139626
H              -1.7003567962233177              -2.7376695176322565              -2.3382183518483477
H              3.9371700885084513              1.5296241709485687              1.5064894341220534
H              4.340517862480269              1.5251063844749753              0.9005559367259159
H              4.161581498534572              3.670598651064857              3.4416982342667137
H              4.397195418156233              3.946120899457884              2.7868196710308695
H              1.627259902808693              2.2235129526105433              2.7279625394296683
H              1.0877264311932031              2.4515305535824337              2.212126383266603
H              3.021259207348596              3.7853753634035106              0.2191077307215153
H              2.332254079780271              3.5530240292769215              0.07604826137151789
H              1.2081398175070128              0.4959025671995523              -0.030471666846103213
H              0.8404050485140864              1.1650300108935883              -0.21019245902878206
H              -0.8630955058974051              -2.54433514693085              -2.0381111201345714
H              -1.5918944101796495              -2.6961525813652165              -2.310697192937309
H              4.088946518177859              1.4437368294551851              1.601660355470944
H              4.694709821153247              1.7219006385454607              1.1319031369137922
H              3.9633218452650825              3.4049711228392034              3.4112171381087903
H              4.122205048779569              3.8281947212622915              2.851269731185669
H              1.4856220835387797              2.1632753398677553              2.275707893599937
H              0.7521012781746171              2.3362891503598604              2.2881656700354
H              3.090525532657713              3.709105755904285              -0.11289979763650246
H              2.6334092393057875              3.592689352118974              0.4500093908559186
H              0.779376086518              0.9103503834509244              -0.5012097818749148
H              1.1821730897398297              0.9031368195414546              0.08940523047050418
H              -0.7890778477949283              -2.5515418900366273              -2.1092682627111627
H              -1.3084159863670815              -2.9116675900868056              -2.4333941956939693
H              3.871266802205206              1.4292502653631145              1.7427442302026936
H              4.427347644375469              1.3760328343187196              1.2594995823494208
H              3.8849528600656096              3.3527389513463266              3.323885884293466
H              4.0281359805631345              3.9413318661934342              2.819035201191293
H              1.626748028359251              2.1423639872648748              2.462659591473168
H              0.984358286006771              2.414387751025761              2.1495538383290587
H              2.9264790670200553              3.152956490221417              -0.008085622320773759
H              2.484138522326272              3.5102635975114858              0.45444972852905935
H              0.563323150569848              0.6009852630296132              -0.22598004840327934
H              1.1723620592507256              0.9556329391744396              -0.18757350360755548
H              -0.8790013124332001              -2.7159508611190635              -2.1188037909723527
H              -1.6317944877918016              -2.911247457721162              -2.4198605234607626
H              3.6417978036674374              1.5224810767795824              1.5808422946103937
H              4.246539347053515              1.3861236712417697              1.1433209889994407
H              3.8311929227709984              3.977612224591615              3.2426838572178935
H              4.267805091580964              3.7082154679100636              2.7264999817907807
H              1.6943498658330889              2.194213783934964              1.9995266665414706
H              1.248689185554612              2.2550267747095787              2.603435143552045
H              2.9313062270131613              3.5199966633428086              0.08226186280419438
H              2.393813461253074              3.614154448611881              0.5594980429120783
H              0.9011099581217837              0.571935549863906              -0.30820715153310985
H              0.7990080075235942              1.1836800654586435              0.08748297858850956
H              -1.1906795534849193              -2.710559964168093              -2.198510743112684
H              -1.7164905887701023              -3.1220074562220588              -2.4342628673902476
H              3.846364886279613              1.2488256047929345              1.4813176050751495
H              4.588643904014262              1.2439086109397741              1.3479785840621163
H              3.82158152225062              3.6650317312872915              3.4711003037444064
H              4.224265514887164              3.9152504753791693              2.966092943503966
H              1.3388737615301796              1.9976956893146602              2.290011230191252
H              0.9352740183613054              2.4531663755580446              2.5443493653996447
H              2.75033576890078              3.8744944052317094              0.07438430879638047
H              2.1996931013558916              3.6449790707698284              0.46087107520701087
H              1.3522139229093209              0.7281948337995926              -0.44166703387015527
H              1.1018775351001295              0.8396041382079642              0.2346527974473482
H              -1.0051983375105424              -2.5229545225312333              -2.0688261882030634
H              -1.5607708278002648              -2.9804712288237503              -2.193909261716675
H              4.14589961928906              1.0764280344049704              1.6319551739239897
H              4.659235549869921              1.490675997623531              1.1170869660407572
H              4.067181097318652              3.6502096735872422              3.4556254714159422
H              4.202060159976659              3.9785187644499613              2.7675506722024292
H              1.6100026106789889              2.215295743690388              2.4256724604327777
H              0.9110452112079301              2.6062886350172576              2.3384660429966035
H              2.5747159558454658              4.176788906335324              0.3588154629528614
H              2.203085607284659              3.584124527246046              0.23731117321259754
