72

H              2.3492478132919477              1.7279157614938137              1.2914532694897498
H              1.8181219815544214              1.4764948327604959              0.8653684730873363
H              0.22753685490632816              -1.0498693577326228              -2.055110164447952
H              -0.5540639513918986              -1.0914715990655686              -1.942136022757418
H              4.61787294396176              2.1519783335139113              0.8860465220828868
H              4.999028425599419              2.567929200597608              1.315929062720906
H              3.8567419022112968              4.690581136980434              2.4185503410666143
H              4.204154226224314              4.791525759578046              3.1116425193749295
H              2.684687447477582              2.374975786942012              3.565050925322888
H              3.225353169912996              1.8188387837300737              3.6149246048508257
H              2.578305514538629              4.4901505175313              0.2959781308271088
H              2.9043519647032565              3.8219313698549797              0.3130839788481272
H              2.2011333803362567              1.501433291121562              1.0993359271797076
H              1.5928966293698634              1.868046637467603              1.1290751466801292
H              0.36495463918905435              -1.1196571920096832              -1.981749204129969
H              -0.263815632946818              -0.9075765369082615              -1.7511883856233426
H              4.7695520165322485              1.9392935510062412              0.801082563212458
H              5.1103894897493864              2.3178420446415258              1.4011134300328323
H              3.738654406823772              4.744333406438497              2.7427304592332087
H              4.411629898967132              4.695767372312557              3.119792746737565
H              2.6751661377857308              2.234661388694572              3.344212206957254
H              3.1908650459501087              1.5131999088769335              3.4460883857226072
H              2.951933990295029              4.580202088276734              0.4229753648231723
H              2.7488906223099487              3.920510565577471              0.2873612054800401
H              2.0531213270065902              1.7567230562016232              1.1965894358316178
H              1.6908898801422974              2.3173567184378627              0.9079821447607398
H              0.37316058134560015              -1.241982647677377              -1.6020044630314743
H              -0.41211353750637936              -1.1623016467703446              -1.601724528388464
H              4.92906889134471              1.892607580885068              1.0099684906621
H              4.994770166249315              2.606405266783626              1.2642794685734506
H              4.192563887835376              4.601319759696393              2.6128430343348614
H              4.4110304588171605              4.738936379482399              3.3085294462461587
H              2.5197386542536475              2.4812179265026675              3.6675755085592625
H              2.943338720833654              1.9174883284189248              3.617185543878929
H              3.1767521344903598              4.609362994743094              0.22175807055611022
H              2.985177091691566              3.970299461638933              0.5316545648903954
H              2.1938164331843586              1.5685125153985826              1.1880097610756009
H              1.7202027491639358              1.8252652135370386              0.7076884298901343
H              -0.049727004043991524              -1.1795425799039894              -1.8140722329050125
H              -0.8825131236640921              -1.2717068119580621              -1.7047894066126679
H              4.925002085672117              2.054404206717539              1.031098569986472
H              4.920468906585956              2.705823691478775              1.4735010869877265
H              4.292235665303834              4.944435725338372              2.455623181025112
H              4.175668830693251              4.836721177483171              3.1555962612094595
H              2.349740481094384              2.4941168114771664              3.846766553259158
H              2.7929518916014904              1.9504848663862577              3.750814195909003
H              2.8371681860616382              4.265069593714479              0.11833518770473352
H              3.195949061737617              3.8395954941733956              0.6778692877655264
H              2.3901753758949056              1.379771697075914              1.1942747341836348
H              1.870680498773465              1.6337215945533161              0.7743110631930057
H              -0.06264918914991972              -1.1758209848671934              -2.060482119583963
H              -0.6146362541923049              -1.3931487930637878              -1.8062004762535702
H              4.903553572530548              2.190024691935466              0.9054334421715237
H              5.166424058734507              2.798192613457386              1.1213400222608516
H              4.089695311213755              4.924343163242344              2.403996930801732
H              4.0223516982883165              4.791987867352018              3.1236617745829713
H              2.1817536569841214              2.2259971014333737              3.9249889219112184
H              2.7714333083435125              2.3455457870975254              3.5271115325044007
H              2.7677313062266546              4.306314403597531              0.27509765149175663
H              2.8417197280587234              3.693754675014608              0.688668478798162
H              2.335058266382999              1.5488073028624505              0.835124042585018
H              1.6570641114031643              1.5132780082103248              1.156300873563787
H              0.12465361380574669              -1.0619629766478107              -1.9218293577054877
H              -0.5339463109510277              -1.2632034357187991              -1.934069998914743
H              4.762275465570307              2.1529765696398897              0.9424487701729137
H              5.268132725811968              2.7191087385182557              1.115281534385258
H              3.7857979233062826              4.770891854670318              2.4312800672784496
H              4.172288756286377              4.756115461664791              3.1062591870603593
H              2.2615792480918766              2.4760610820083353              3.6715845267639056
H              3.009534743535373              2.381942506138111              3.737725917037102
H              2.5101628278061274              4.240365923408761              0.45539908836262394
H              2.860797649031335              3.6653537608003948              0.4386895055448814
