72

H              1.3054229010022274              0.9304264202304839              -0.6413365488302294
H              1.1972297823513318              1.2589984599561619              -0.010644439338491907
H              -1.4546366785785438              -0.6721216766750064              -2.3617006706438737
H              -1.0897970471891987              -1.1649498735504416              -1.976220826167693
H              3.8774205838117894              1.7940507419117857              0.6150990313014126
H              3.9743125857245594              2.3472599615807987              1.0209577402493464
H              4.393905232543305              4.382784554949299              3.0375911719860773
H              3.8154101289478426              4.297992258823607              2.6343232048544643
H              1.597285002731991              2.541330090206054              2.6751856371206726
H              1.694656172558772              1.7729935897952906              2.6525907130480517
H              1.7530627445840636              3.624760611828735              0.32971072349412106
H              1.6223514467594775              4.007046836215827              0.9286704111846987
H              1.5245327466478238              1.073209401313845              -0.49226314007330957
H              0.9046053748911574              1.3056209630293476              -0.22137790620935208
H              -1.4639153481771905              -0.8550586829708068              -2.2744053711999292
H              -1.139143382506376              -1.2791852826228105              -1.7647212257517844
H              4.405572802928247              1.6807931355373569              0.6730389907356039
H              4.488806849552267              2.3919591531252404              0.9334902502645694
H              4.3643432045045145              4.3848104002692745              2.9324134612379353
H              3.8085945578450264              3.942798452146503              2.7465741443621106
H              1.4465884747691453              2.45687784332236              2.708303972217003
H              1.4020006546570014              1.7664181955449614              2.74674499780433
H              2.145346698665399              3.944603250498546              0.4217846324881145
H              1.546011847843084              4.042900688006768              0.7889827189238187
H              1.5325746182534674              1.2485729615140224              -0.516055418779182
H              1.046106711733693              1.2412862913178027              -0.05710953933440744
H              -1.5596853074907608              -0.9630261084404803              -2.325249929771225
H              -1.3191903777936984              -1.1738461631033212              -1.711415466981037
H              3.911551530250486              1.6473721037413693              0.7025059163039371
H              4.373405772825797              2.0771662602268663              0.9279845307513271
H              4.049415350981403              4.175294279533835              3.1963937074561377
H              3.8208112956681437              3.9043318914338236              2.626505549977892
H              1.361777228446326              2.4889858611602413              2.7353247854558567
H              1.5943235622936298              1.7949504004814805              2.846927608550117
H              1.892298613477344              3.7886756997790982              0.29327966012933593
H              1.4397741039302896              3.9210602442114517              0.8446897063739748
H              1.569907055583735              1.2711550927213573              -0.29366019662687376
H              1.04123111732176              1.1688978109525252              0.1758323906350419
H              -1.6300192839419974              -1.0891989525517587              -2.2788366450092594
H              -1.5330981268128983              -1.1615660177064477              -1.5683624267869456
H              3.613381864904601              1.6194602494096921              0.9626678746943755
H              4.267588738970866              2.0925896739737015              0.8582203941903751
H              3.8799204023191023              4.515059627367588              2.9101826842925482
H              4.0325037792016065              3.9720083419419594              2.45014593361858
H              1.3848499989715324              2.289695617645515              2.643479241954325
H              1.6863558270828676              1.7225893348421013              2.9509214712570504
H              1.9608234455655025              3.862975791230762              0.5913214267960156
H              1.3446116869995508              4.219029369477828              0.8038579700924491
H              1.5571408481886924              0.6506355443280976              -0.2774962783336347
H              1.0673187710228516              1.1781429231728096              -0.039389742312310495
H              -1.9532600904249258              -1.014802033591183              -2.6311224295587037
H              -1.739665006698774              -1.297816504510422              -1.886360097937089
H              3.8640008666182557              1.586441440086483              0.9325875356274685
H              4.286605946718019              2.0796434342924672              1.2198857784580457
H              3.7966886187586306              4.769529239129461              2.8822872675132922
H              3.563403204505786              4.177383343775879              2.5888325192314943
H              1.2284755741999176              2.4003023621329427              2.453649875962612
H              1.6814972132544659              1.8220339420845082              2.7549495917844653
H              2.0246686452553946              3.767259659514745              0.5487830479962138
H              1.350567459729577              3.9919878002698796              0.7460801441166807
H              0.9648151366701986              0.9297706572746429              -0.597745076385091
H              1.3515781834861127              1.0482269843468741              0.07612713376090174
H              -1.817591704907936              -1.057203927587601              -2.6991698405204914
H              -1.3026113115590428              -1.0864295172518106              -2.218275072441766
H              3.942031309413238              1.6451721756908873              0.9100835892897354
H              4.4224019820961304              2.1768922118616416              0.8515819387763002
H              3.852730257625882              4.676053082375732              3.065831443275425
H              3.784831792358709              4.444075520496689              2.3767346775801723
H              1.251069415935728              1.9749068277811503              2.3361810887407506
H              1.7288910240404147              2.325940781988896              2.7283557294447767
H              1.605762696718751              3.765774945737744              0.3022849175739865
H              1.569907962932213              4.146634455105676              0.9274192468072759
