72

H              0.9414260298064899              0.8559794057319455              -0.26883098181976606
H              0.9182536269900742              1.3962154888943075              0.14970549644011774
H              -1.3697925939181164              -2.091870372224022              -2.0133567453930894
H              -2.024500601664991              -2.126721077833212              -1.6939132105216907
H              3.5863876004142443              0.9671448063295075              1.1323439487801867
H              4.116408387371405              1.5160920748380473              1.01159879963738
H              3.773691977402875              3.982486641838174              2.676677051054245
H              4.3506007204211326              4.110382834678148              3.0232129973066715
H              1.6087318527360315              1.9317148396340333              2.9133158165221853
H              1.7098622327461588              2.2096294846852653              2.168592611678975
H              2.5344394425890457              4.090762335227917              0.3452194027027078
H              1.8899318495565265              4.0074300394603055              0.04626169581169883
H              0.6784293209112819              1.0403103985982438              -0.2549803200253104
H              1.317882930399244              0.6938922293575874              -0.19719470938759157
H              -1.3216868365334904              -2.2601422167040393              -2.339091996106816
H              -2.158851914312664              -2.2205706633508284              -2.016460177390874
H              3.8349765448110262              0.8681419023472796              1.1614876582665632
H              4.526733789872274              1.4124733946042796              1.2136131035455766
H              3.6571686852373326              4.044274570435063              2.6217008280367873
H              3.8673288878647276              4.121125615966385              3.334401620416111
H              1.2876757840536903              1.9353224623958531              2.5136403213949956
H              1.8174308257900968              2.343012964090948              2.507714105881379
H              2.608810974197016              3.9248786931366455              -0.249327073537954
H              2.004445891850422              3.9880546863819823              0.1916546496904326
H              0.5025851820206019              0.7798803355285756              -0.36789353390160284
H              1.210532668522096              0.809891920643436              -0.24823223849811
H              -1.0661871908080884              -2.196194090848568              -2.5694999981407127
H              -1.633960730101396              -2.294712107976544              -1.9834731484741168
H              4.040753981698807              0.7885270328427654              1.1947071429269862
H              4.3240918841968545              1.4497249875576779              1.0425122059105987
H              3.5768189109009048              3.9185115699967192              2.61372331130626
H              3.750369295391636              4.351793425825843              3.123342130955456
H              1.793928281459107              2.1581234591301035              2.9529088399352066
H              1.405736662793985              2.276944176931023              2.320470769567797
H              2.496379983426882              3.9487095903313576              -0.2712591461397428
H              1.9800051445679376              3.875700317360649              0.21522223607817728
H              0.6595969363830032              0.9458853514970048              -0.3200586434178364
H              1.2913821609370748              0.7612308571052502              -0.5983297573212042
H              -1.12800002697903              -2.08387274603306              -2.3899173165080168
H              -1.646126972243882              -2.397890111225906              -2.0292408758974134
H              3.5571957714330042              1.2157945418201808              1.2763994415951603
H              4.0885632581367854              1.4145773042684473              0.8050947423727296
H              3.683716553427327              4.025180381749467              2.607561203974098
H              4.22535576492471              4.262029463613755              3.019963438462102
H              2.1383012539445945              2.3261221992219085              2.9420115180618454
H              1.6763458298217173              2.0587094217958994              2.3197668973778396
H              2.699778157629399              3.7845316496430836              0.15533529099779347
H              2.0902809570875664              4.13154584794129              0.36688690998072926
H              0.8426273947935902              0.9157936212018828              -0.1233626014607058
H              1.103111157929095              0.8022600621585741              -0.8296018281882909
H              -1.177180171604066              -2.2549405639726863              -2.2706592815166715
H              -1.7676451459515352              -2.4068795266557985              -1.8024336182365763
H              3.8299656871802217              0.9363973347589364              1.115239497602952
H              4.174138190511827              1.5679049683748663              1.1997133620069884
H              3.6341318277653474              3.78771493355639              2.779911898576612
H              4.2750866509356875              4.09512429046895              3.0909989345982094
H              1.6146296557653381              1.92787704794157              2.8658383398391933
H              1.3565873464479443              2.2549600692820397              2.240360555544735
H              2.603797590321651              4.419393259003807              0.20249548571153514
H              2.1261069282490848              3.9834041542820304              0.6419742318844304
H              0.7958141735093102              0.8755236977262435              -0.3487437194450565
H              1.339881096991249              0.974143233492985              0.06798977552434397
H              -1.316811270718296              -2.083291098176893              -2.152561740836805
H              -1.714331076319798              -2.4362200523008393              -1.698229058115094
H              3.6785467426880745              0.8642657737898751              1.3856667701962118
H              4.231978967270258              1.3472375824150717              1.124216004838668
H              3.8952571303448384              3.7767612591691493              2.6982180947007954
H              4.287168636005474              4.120845259346852              3.1746993187681625
H              1.3335910648903841              2.007549498804788              2.7141831623626356
H              1.8529184659269777              2.2130648994010684              2.2812863426574785
H              2.420493092794742              4.320610113580497              0.4935887588107033
H              1.875785956151048              3.8401570007497              0.35999109011861286
