72

H              2.1515946950317284              1.592747130309308              1.1323454273067122
H              1.9228731535478063              2.2152461681219906              0.762771672280359
H              -0.41817378026655444              -1.2325735692461854              -1.6589401102259704
H              -1.1275024928679038              -1.3330183404654985              -1.8119420997617273
H              4.784754662700862              2.2818283524177243              1.2638280781680928
H              5.043726589105928              2.907867032654984              1.3747713080369157
H              4.5418117922875485              5.010119940118813              2.390068067342647
H              4.544085966446117              4.611901717049394              3.069708756496645
H              2.5756286462727678              1.9108416291165327              3.841456016434956
H              2.8678467722431176              2.4351557744784698              3.298130092530979
H              3.034227633034708              4.44946885901857              0.2510350526669425
H              2.8107191454535942              3.8945100901027443              0.7032931918396452
H              2.4716169568490494              1.326612159424879              0.9628015421051678
H              1.8110504376952776              1.586742764444322              0.8571722565863147
H              -0.557561576100426              -1.1151488113177255              -1.9835683904991976
H              -1.0319533591462564              -1.6945929790689636              -1.9784350919370635
H              4.965403213338997              2.145780490032483              1.243985838374271
H              5.135494230879436              2.9040613498239995              0.9343638309794335
H              4.315727526842651              5.062075792794487              2.5985863514068464
H              4.0380712543559865              4.512086897138999              2.9905718595053203
H              2.433119451417213              2.0080610560283447              4.023467944020633
H              2.6234416244590633              2.2611072695958456              3.2286584920802044
H              2.788479749734851              4.133981799591329              -0.0318365917383304
H              2.7465204851593414              3.9121403553482645              0.6348146423027818
H              2.4802875936816              1.416778915504756              1.0598216412560892
H              1.7968099965082265              1.7491081434857214              0.8376633678252918
H              -0.19853394463931354              -1.0419350769106317              -1.9531159744411026
H              -0.7926306848626181              -1.5132207265723232              -2.268761110627517
H              4.938857415607908              2.2996470514055716              1.5023408868155226
H              5.334925900649405              2.8315697085659908              1.1483244031066413
H              4.223735837899045              5.033334513948636              2.444531320915931
H              4.236982549079022              4.534357809887385              3.015682352321098
H              2.2703078284573315              2.1234284002822834              3.7538666637349536
H              3.011068910445032              2.250143317760913              3.433516983612683
H              2.5613315639426903              4.306300107509016              0.48031191878646917
H              2.8640088762021927              3.626902334969794              0.4376576948819681
H              2.433397617713902              1.3134616375237185              1.1227166199928629
H              1.8681216072202849              1.7828474701845862              1.0685369527613222
H              -0.07120615904223733              -0.94282148539949              -1.8183377941550125
H              -0.7628518001671083              -1.297778578752702              -2.1300471750811663
H              4.529314433954789              2.245660061854393              0.9753895609945563
H              4.896918377419838              2.840995417688716              1.1496681542511709
H              4.095860158943219              4.72627828883086              2.534066617245976
H              4.47460560380966              4.734292172214762              3.1097446523975605
H              2.7702402796432537              2.19752878422488              3.549262175159994
H              3.382530122913129              2.0093156251321873              3.1316710431761297
H              2.825116805592914              4.508866910724684              0.4554005169263503
H              2.6053308507348065              3.7780808745763945              0.2616962067896893
H              2.33016486737389              1.8635043514314913              0.8639513268575733
H              1.7385101587455842              2.074044760371516              1.252476206314898
H              -0.07492563417274854              -1.2120046891572631              -1.8452124036100008
H              -0.7039079154646686              -1.1530004113498495              -2.065514802722936
H              4.582182384421581              2.0324439230410642              1.1058036656475427
H              5.05069012887282              2.4991306150800496              1.275027369476943
H              4.0386287622626185              4.9578524224750105              2.702185383098855
H              4.406046139769359              4.4476752232055015              3.040152792728585
H              2.849218174148601              1.8097240010027889              3.6123514991098937
H              3.196479243095155              1.4997071300062919              2.9199704171129603
H              3.008111790850036              4.496813298302744              0.40969465526174376
H              2.915815205528076              3.7872111058608646              0.44215689637699207
H              2.1219918157899245              1.6222356753083134              1.0106516435148427
H              2.048702663988531              2.359397002235697              0.8717848372498032
H              -0.020776816268333935              -1.244085986920221              -1.6108047450673402
H              -0.6411118884019101              -1.3638872769105475              -1.8683713987100843
H              4.93508908247229              1.9971397660240089              1.637029112451559
H              4.902923264418578              2.6944198901868184              1.2212901994354997
H              4.554009427732746              4.765960466947272              2.5829561219299197
H              4.441914019504119              4.355326146437375              3.2463733302801985
H              2.558262413475875              2.374566367182388              3.634197682376413
H              2.9434084459106207              1.7883063644964319              3.265785888884839
H              3.197775802503666              4.4725774326127965              0.3305994742718267
H              2.987626758853884              3.830985978826552              0.3384274122238914
