72

H              1.5225712652677705              1.0186684691189574              -0.6733167836289509
H              1.3441158746618558              1.266751138386021              0.004253368868289927
H              -1.6865292002184336              -0.5655031490537014              -2.401438410990277
H              -1.2618978489115524              -0.9982809509322744              -1.9349676080127032
H              3.968848347405138              1.747841457508777              0.6393455022696486
H              4.178641128419983              2.4036770573049107              0.8292771719081169
H              4.265557309820183              4.448977121059936              3.090874531482932
H              3.8864122520762336              4.296121314871219              2.4007045092561725
H              1.7294882176477528              2.4484499376226685              2.3874826873407167
H              1.766160331302767              1.759968181318737              2.6606717674931373
H              1.7170493284108659              3.6486038748479857              0.4151545615658101
H              1.6477535675696475              4.200407567723139              0.8757654402025395
H              1.5897928498613798              1.2435551070328386              -0.44763519307744926
H              0.9026022908340627              1.3179719646513086              -0.1609042539641725
H              -1.4489097811259992              -0.7825393819672494              -2.390669850710645
H              -1.1319500317866655              -0.9723933304329722              -1.7395207786457931
H              4.116725998619611              1.7939117382829062              0.46583751739001633
H              4.429078904711503              2.2042610558276885              0.9531358678273134
H              4.218915731817502              4.162557411995648              3.2370751028566485
H              3.6754951399346316              4.01047068784252              2.7395914433939543
H              1.4398663163309513              2.494721055048404              2.4910372132205025
H              1.6076236262086634              1.8391717568024792              2.610263075589802
H              1.9344869231962323              3.9079074989562037              0.13370312203781584
H              1.538649585158396              3.8602310323708275              0.7515144034336744
H              1.7648019569429316              1.0679647374684516              -0.46081814261381776
H              1.223671622137626              1.2888095582743704              -0.09185214257731034
H              -1.3899434461846059              -0.9717437460713139              -2.355779256514191
H              -1.0555335726742023              -1.0534591275145908              -1.7550716358746228
H              4.123894945600219              1.6075296333858555              0.8512015122095149
H              4.569544164735583              2.1292917220267933              0.9456247712472883
H              4.153280333765283              4.305864469503837              3.2034993644250074
H              3.7831461346394146              4.0789373919689185              2.6161372003978904
H              1.4280466773594853              2.401963659526837              2.706823441861327
H              1.6162002444845163              1.7798560829389407              2.9976189642075286
H              1.8983311061820525              3.6654155221566467              0.16575973739746117
H              1.5279913656907438              3.8936494336584606              0.7497553891850003
H              1.7227350426598824              1.0943401289120975              -0.31505087814805965
H              1.0459616409818187              1.1471676932327173              -0.0978556773059254
H              -1.6791097827342385              -1.0049243022254641              -2.42021322812484
H              -1.4088640459837798              -1.1182622633343453              -1.740441004117904
H              4.026524602993898              1.5305309590069203              0.7607181639868533
H              4.335521720834834              2.2108006275987755              0.6233716499109264
H              3.7677482395076014              4.703736442876763              2.889352760759771
H              3.912674309162785              4.074965018854844              2.5428377081079185
H              1.4798874539652351              2.304974915741909              2.832322652023719
H              1.5066480397145103              1.724243913547637              3.2174316127451985
H              2.0221435997361823              3.8257229447305456              0.5291528174764463
H              1.3776867865471853              4.185701746890936              0.5416119378236799
H              1.5106378319783453              1.0474564779672189              -0.5594965077953379
H              1.1355595810447192              0.9128464842023074              0.1516933615272804
H              -1.9248853155823982              -0.9036290947949159              -2.5980013355650353
H              -1.6150986768696445              -1.397259633702563              -2.030560951710032
H              3.6759477593118164              1.7209199633146597              0.9438557099494045
H              4.268259682661995              2.0773897768650205              1.1704262391201306
H              3.7299005120051687              4.582908583684486              3.0974038098886747
H              3.7665034623630755              4.1844836512548955              2.4425352517647436
H              1.268381969114193              2.168462042627435              2.3815355919851346
H              1.8082355197642392              2.0313337529885382              2.9137625625557915
H              1.9739755776048624              3.9135440012927196              0.6842294792814605
H              1.270774162303746              4.133553028116047              0.8783531494733833
H              1.2484838285968598              0.9058177466179826              -0.6791959844851313
H              1.480068838653847              1.4345229235739976              -0.1351149117745947
H              -1.7865297137966525              -0.854041817302655              -2.4228445504805953
H              -1.2130161276946765              -1.0691999153958902              -2.054335602559696
H              3.8461286248042996              1.7344150033808536              0.9969712303299446
H              4.15882979286855              2.3209891182204165              1.1563002164156038
H              3.9908677187856894              4.492973867462584              3.0092699819228304
H              3.8675757475696892              4.347518899366017              2.292061152049454
H              1.1379675748583735              2.2506615267689485              2.484734180277109
H              1.7991144991114187              1.8724502810647672              2.765525724409402
H              1.5564039483955923              3.7238110334460823              0.4780081642023065
H              1.5165009122963187              3.990306255347915              1.1575682935889522
