72

H              1.793528715350283              1.9700538080494927              0.3393267065328393
H              1.8569087433405145              1.322982841745252              0.6009756509746856
H              -0.818400948807933              -0.039621827036683585              -2.2005137960382815
H              -0.10590589651968559              0.19988803496164873              -2.445221971998622
H              4.858056039846111              2.044933515369605              0.5211899068984339
H              4.463926031330914              2.7113243237941598              0.3556585882117323
H              3.807989158021499              4.367169548705886              2.587900019466634
H              4.1034170905122975              4.772269495193724              3.257798416832687
H              2.8012782663855043              1.3884267594176767              2.939899998511331
H              2.7896473083033073              2.097683567452533              3.064666161772547
H              2.951710809827306              4.394265457916779              0.18176178314682406
H              2.257024179895734              4.303463698128823              0.5835586144577931
H              1.9785272090858204              1.8415475221288458              0.21293998711400697
H              1.7704060808497863              1.4112190932958752              0.8533263595811804
H              -0.8499494958038034              0.08019629657047003              -2.062875031666101
H              -0.23401606269465278              -0.14834655717668985              -2.337986156078881
H              4.348693807476198              1.9431406981450003              0.5917843860267652
H              4.788967005235235              2.508581470187054              0.46720378387288436
H              4.038580334008706              4.013985759884787              2.922714611615942
H              4.1099263078032395              4.558881531336996              3.490051844547913
H              2.7055898912385974              1.3595837298359181              2.9536904309166117
H              2.8591100914598813              1.9904691183289536              3.240795669183456
H              2.519436924927043              4.637664419268784              0.18391074930516846
H              2.387311051562852              4.065250871120756              0.6143243734204037
H              1.8509748370028911              1.8555660195301127              0.303161908157286
H              2.0243165485418917              1.6313233648060457              0.9650680423998591
H              -0.7836781117529461              -0.05728007574865358              -1.6605809502730144
H              -0.2937998548374265              0.05833189251415973              -2.133516501115535
H              4.581775728496519              1.7860347725799615              0.6721666524812946
H              4.567949873775831              2.5379059376362596              0.5059244780006213
H              4.261843132991152              4.172532447754231              2.6978657157294395
H              3.9508923371131286              4.2477009485308015              3.382516757769107
H              2.510571487376175              1.137664872369517              3.5015261729537506
H              2.7262233046306212              1.8927951957626443              3.389808165922075
H              2.470342176402276              4.385863618101928              0.18142322916446543
H              2.461833620269177              4.044306755471607              0.8214491575243362
H              1.769055266210295              2.072773093582509              0.2096591441989649
H              1.5186611536353658              1.814522158489536              0.82030909519095
H              -1.2567261709915438              0.04238937653984351              -1.955666395760981
H              -0.5283490086358099              0.1315763677674667              -2.122176932691589
H              4.775162939784658              1.8771966552291743              0.7665202148589193
H              4.5385691648870505              2.3847589209369584              0.18370590637220383
H              3.744336281357378              4.4716944892495345              2.628534086746274
H              4.075056204820979              4.3513135847613285              3.2780472481295324
H              2.432673023334465              1.5850149771038646              3.3183131322364767
H              3.154499985499372              1.4860103921901051              3.6205652551643746
H              2.6738478658060596              4.267007661594232              0.1555192885504024
H              2.273120666637113              4.53391536721842              0.754925984138477
H              1.984194533494082              2.070897157303162              0.12852219582884603
H              1.4462500231185538              1.7584827520888036              0.42951059465471364
H              -1.0960577238118963              -0.17648387574158153              -2.221344942086922
H              -0.46031078500017714              0.23927776334019304              -2.311552441491739
H              4.1956902119457              2.0054710257913784              1.0038721038104468
H              4.241699867597091              2.3997360916067034              0.38307053028803006
H              3.4662271112256726              4.478199960002596              2.717010438540394
H              3.9324474519177826              4.434984634128069              3.2759550401459965
H              2.363921473678474              1.6475914681320298              3.2713776401354773
H              3.1005196624596754              1.4817165211479326              3.449813026624272
H              2.677993001316362              4.431035233344513              0.009304838587748316
H              2.3250140066518443              4.346533627362958              0.6797630302084141
H              2.020504805192044              1.857415513780138              0.28035128339341975
H              1.4100167930927077              1.399444259021234              0.5341886549748532
H              -0.7851821705991375              -0.12776659809370888              -2.166751671113504
H              -0.17710375160510863              0.20327358443319465              -2.5934493733747557
H              4.5339035057791754              2.0598509537920924              1.1137375659963835
H              4.327338324023092              2.6126964400499366              0.7468756848665491
H              3.7954340294031743              4.630122014800547              2.4640226308056254
H              3.9433152683547275              4.632554626924095              3.2076237879483678
H              2.6402921315762065              1.2605577764749634              3.022682084075831
H              2.914574094412404              1.8485893992265974              3.261867267828265
H              2.8315196409685868              4.453432093003424              0.18827925563883433
H              2.405321496154131              4.473297809010342              0.7713182369609588
