72

H              2.2276430642495697              1.2596492718926187              0.8527006792777153
H              1.5750942021484975              1.5799652795034331              0.8244225653591014
H              0.3781386196352012              -1.2017804854807665              -1.9265826554503924
H              -0.30187184202667555              -1.2233823625659719              -1.7061674332555454
H              5.020350434522152              1.9612772013296622              0.9769940899835873
H              4.912809808411154              2.5294251151906457              1.4012174174898433
H              3.805413737738657              4.738094656301571              2.498535349588228
H              4.04079100823092              4.7002068720340535              3.2146628911518977
H              2.6234538877608014              2.6248447691668284              3.848945481413232
H              2.4225849601098406              1.8832547930540182              4.0602966952526245
H              2.8754732783435273              4.358168858038139              0.4042646576271574
H              3.3548876583782143              3.740262291992502              0.27929636744896624
H              2.198816581373624              1.3250256450952251              1.2507175302951543
H              1.8755635335127712              1.4962040666785879              0.6738640626293193
H              0.42112148541199135              -1.1719180646054328              -1.921770587364882
H              -0.32600859070699617              -1.1674748244792206              -1.7777059942411315
H              4.940299607283564              2.3753953071448306              0.7366007266729534
H              5.209819482793669              2.645737463106911              1.3908933575690337
H              4.017723450715462              4.581311451942509              2.3824330423563786
H              4.101175719829141              4.8952529707688095              3.0201239643276683
H              2.2959472185503027              2.4962772600578993              3.6668550074187642
H              2.8285144095835477              2.5513873210293925              4.082357376310067
H              2.6801102034473487              4.389102644758171              0.6743707907400547
H              3.049171074750951              3.7667311784301667              0.5054528441730789
H              2.2862220115567635              1.3192279929084978              0.8278571994855448
H              1.6578948907751414              1.1989728445782937              1.1245852327871735
H              0.2878473421022553              -1.0785216968162996              -2.0309869997957684
H              -0.4265824460159996              -0.9866708986376035              -1.695026554097805
H              4.590556861824996              2.3918966367388896              0.4492060753084929
H              5.053066398843779              2.365815931606045              1.0249015110420656
H              3.517091018951407              4.462150504656528              2.5217465462670567
H              4.044529690120623              4.760297005384757              3.028174380341389
H              2.5005106055737834              2.5395713193789144              3.627083703079283
H              3.0920368765653805              2.3737954023182724              3.9718680274563662
H              2.441790827579173              4.365832091177506              0.40767604348678027
H              2.8903845035054303              3.7778183300207293              0.43505818992744605
H              2.236936173020967              1.7505972420254075              1.0056937998080706
H              1.6905945726885327              1.2412038585572112              0.98792235823243
H              0.4399663580026361              -1.2093998419096992              -2.2133330532726156
H              -0.09607518142909713              -0.7457045316446663              -1.7715764056499779
H              4.67071070977197              2.018884005124462              0.717059353197019
H              5.148267018858158              2.2445233537057083              1.4257339695772917
H              3.5948906257560735              4.5526242454916055              2.436078624008264
H              3.987225216691946              4.586607305473913              3.0627817156245216
H              2.5472710136403784              2.2455534023962405              3.668986629783248
H              3.1987950182532723              1.8877057778586062              3.9146493067457984
H              2.5274955244023314              4.480287648860051              0.3895600166093893
H              3.0335803342530894              3.9464100802138784              0.2881846598498296
H              2.123162726643336              1.403766270899867              1.2563988531508947
H              1.5064766325041752              1.4806661456797447              0.9730491350244791
H              0.6357413814970271              -1.0178916658687127              -1.9037256660926487
H              0.14886115344454945              -0.6161359884803068              -1.5363195706713162
H              4.869831541339178              2.0154188785137386              0.7207636055448761
H              4.912587072161273              2.16200394040851              1.448474369010712
H              3.7450198617482955              4.465131913630132              2.7934699065020188
H              4.350769139489254              4.725976282141293              3.037689972135479
H              2.992943080569687              2.4466043180084602              3.257239175505432
H              3.057320695798171              2.035164408418876              3.8475635336568996
H              2.750009559120248              4.709483563695146              0.4057531596819528
H              3.0045974435636373              4.047475777666461              0.1943025986868704
H              1.9408625733766378              1.573217006474924              1.2982174384842253
H              1.5192746945545295              2.002494544399899              0.7839639286561715
H              0.4366572956619618              -1.196118979879076              -1.7502804103717082
H              -0.14177245598472696              -0.8265837303452862              -1.4997369990668548
H              4.694733959451749              2.241502004428349              0.5860775850962717
H              4.997360887179011              2.1636630424841283              1.282683725296487
H              3.6765301620552044              4.622546272059788              2.753869277981121
H              4.3984822611983985              4.82591903042938              3.058001230059631
H              2.9645440117658777              2.5158735342658063              3.683470679277949
H              2.913628248982536              1.7987732776095198              3.771532996775706
H              2.977991522269297              4.716581054321332              0.420280567255812
H              3.2063357570726163              4.034079763025716              0.4267232767706214
