72

H              1.0499524667023619              0.6633861500008912              -0.4974899967402001
H              0.8400098199547535              1.0886674816368906              0.08291438818218703
H              -1.6284068507382337              -1.2847019601109788              -2.588520096862554
H              -1.2389442987343549              -1.5282508673978503              -1.9638464886545675
H              4.137812939001886              1.4613494026119043              0.8116457704555415
H              4.536264526190053              2.12023348092017              1.029257246217296
H              4.051805249325023              4.631688802201416              2.8706923191014977
H              3.539429464347792              4.032422559474023              2.815362432021611
H              0.9848959139835995              2.436491663033349              2.842649818913494
H              1.47764137114918              1.90826393797007              2.822133970280246
H              2.1164293208866796              3.961618203488731              0.38021250439240195
H              1.4649706148730248              3.9706869961886113              0.6939521699736793
H              1.1338711764139509              0.9280062886994362              -0.5003109437934863
H              1.0884758495843132              0.9271725965453771              0.25532304267235784
H              -1.6659007216000519              -1.021669269861643              -2.3722260382792935
H              -1.3487446656309519              -1.5910239507321202              -1.9038042587832809
H              3.6918709979569218              1.589295123875875              1.0590879721747624
H              4.090863641095094              2.1846756450360254              0.8581981843672296
H              4.217697656078526              4.614567932633268              2.8722567073291385
H              3.9351818586525313              4.063259290604456              2.473134748966708
H              1.4559750870701909              2.5008797443876727              2.8820343516234286
H              1.5830151265049732              1.740791057201789              2.7145352853392057
H              1.8648732357753772              3.7585935195193296              0.6487183798757399
H              1.4985589502526593              4.261179528157657              1.052669220015291
H              1.311123533250028              1.1538618736040807              -0.39720365486292375
H              0.8294349766331417              0.9979779962322491              0.1143741426134137
H              -1.734114343955395              -0.957533056710898              -2.1852770492644
H              -1.7317537613011054              -1.4883132195874638              -1.7014911230902579
H              3.701223043347              1.6764813182160914              0.7537758879694368
H              3.9634599352376902              2.2853142006834584              1.1465090687720696
H              4.1889345148408506              4.555090509747994              2.7420437240092435
H              3.8988763221331375              3.8391750590813234              2.5991456931296084
H              1.4162401516754215              2.412326102245173              2.71592556763721
H              1.5035740411744531              1.7599584547763119              2.427816487844417
H              2.0871999197757085              4.007341877498726              0.8078712045697413
H              1.410810829322864              4.2034186592064495              1.0024662975369152
H              1.2005433572652848              1.0173574063802462              -0.5575590515968584
H              1.137375794194532              1.104624222964598              0.1565169229235306
H              -1.778990212209592              -1.0639737964137268              -2.485611605824527
H              -1.6381019310042237              -1.3468914072108602              -1.7489776509214605
H              3.836180696425468              1.655961696781896              0.8560236360703676
H              4.357520915776986              2.0109817354725377              1.3445623322409437
H              4.134947263024137              4.395141132035673              3.0400385383756765
H              3.6847858691441098              3.9617341609509897              2.59511086936358
H              1.1695778649115471              2.3717931950232107              2.4475230484648827
H              1.7855943503361915              1.9972802812847423              2.238359793522701
H              1.891944546028389              3.856207809376621              0.3882670706104631
H              1.5265640069327535              3.945996927749067              1.031123757579958
H              0.9011099609793408              0.9250930078358228              -0.2069257752945745
H              1.2315093930734737              1.5588396297524758              -0.14079054766933388
H              -1.500354202225963              -1.2024994970455183              -2.429033848500884
H              -1.3377191413190024              -0.9472707263851222              -1.6919996766115606
H              3.8463621220428763              1.4820221203477584              0.7081172257604865
H              4.296832821633643              2.1547775364576025              0.8353381640092062
H              4.189873978435431              4.603151291765549              2.9608714129436433
H              3.7177361913793585              4.0257544820299085              2.5603480185709095
H              1.3079503851236642              2.4427880158389463              2.6515553395114515
H              1.7216747402657206              1.8479531677267576              2.5711256454242695
H              1.779658217278914              3.677338611253254              0.0652561846983615
H              1.6235424815145705              3.9856144593978216              0.7890607168509736
H              1.2636449419398292              0.793217196566801              -0.45018216257624916
H              0.9292786302688127              1.1267141407634167              0.18762214036630012
H              -1.5227046125263273              -1.1369637004176              -2.5382764740337223
H              -1.4862727932964015              -1.3514862071672968              -1.8145957050623405
H              4.001999481928673              1.5259156201045017              0.6838323499756588
H              4.383758892504653              2.1072584585686815              0.8981241130129682
H              4.145503194080046              4.652841935571858              2.8530913587289244
H              3.622111659244999              4.091748750428462              2.8183468918396404
H              1.4691323148694957              2.0982913015986155              2.406748537469273
H              1.652927781291158              2.2615285739197595              3.0110148408600144
H              2.248591917516794              3.7981249730747613              0.32111477262072724
H              1.5602481837577056              4.05470636207001              0.48480934715828894
