72

H              2.3802609863467734              1.6734251461864402              1.117131505921411
H              1.759272690084588              1.583070324253552              0.8152752443588759
H              0.7695067032885164              -0.6301964208343017              -1.6995404054241627
H              0.6029683458959382              0.04648730105715592              -1.7701956273541986
H              5.074192498554151              2.512575754234381              1.052802161548359
H              4.787425461562974              1.804475155789278              0.938068428700114
H              3.964504218611008              4.395228707912281              3.221627939682504
H              4.368473748407268              4.550480375420238              2.6735105693229437
H              3.708071168476364              1.5263607465752618              3.2555322061672873
H              3.0991433658242276              1.9033156452617543              3.4097528541455477
H              2.4194910262721647              3.9481908952369764              0.43382184166684085
H              2.7568322269344825              4.593286560834892              0.41722492589357285
H              2.0617086048278597              1.5901382594572393              0.9509535827685673
H              1.6337173104771858              2.060348452961645              0.6814680018654018
H              0.7415069378887773              -0.8288623577367833              -1.8061218159446693
H              0.7801740235782475              0.039280045932807414              -1.8046026684823648
H              4.909753731151857              2.4816486070007495              1.1935528933727213
H              4.871996490080279              1.6867271613790784              1.227881221713479
H              3.817380898880896              4.816103368342863              3.187776416114209
H              4.32656917041099              4.46094419949177              2.862100878533858
H              3.683167105022492              1.0885372290015947              3.519347194230663
H              3.0847460097607384              1.655004412233272              3.504775909215576
H              2.8329078374509624              4.021941998937892              0.6013131701567549
H              2.9467310120011265              4.648853547548646              0.14055508769964029
H              2.298044270056156              1.3325631966482476              0.887511048224098
H              1.604731629938818              1.5703356999294735              0.857401853587479
H              1.0929845545084633              -0.7769102496939512              -1.8606324442487565
H              0.7157871483882107              -0.193889939988883              -1.7534653136308977
H              5.182526223277888              2.4291796715152607              1.3347852234740298
H              4.842379506492046              1.970098669738707              1.7107901504234293
H              4.048051231338883              5.08154515918007              3.2261101653550046
H              4.451762373880616              4.462694052496908              2.9311635754850407
H              3.3685576620645294              1.2561765843973618              3.46104743528368
H              2.9381761920601903              1.857553944839234              3.3353627630955143
H              3.2505116886333485              3.936526963818763              0.46375553074286296
H              2.9660033764392044              4.614759433476346              0.24450620303606135
H              2.2212075251748566              1.605426402126921              1.2755472101712748
H              1.750491548776118              1.6543280125871196              0.6310119990288733
H              0.8771162195141579              -0.8834296379791132              -1.7619639562367906
H              0.463560063784038              -0.35147394741418114              -1.7924330300908784
H              5.360236960712652              2.7183598927974724              1.0822000128642404
H              5.201227314115177              2.006483587967887              1.2959017051946118
H              3.956265086919906              4.937138520085683              3.0740847144714936
H              4.6648486686099435              4.697531859100669              2.8586942849224526
H              3.387681968793876              1.512588954084028              3.1624708008244697
H              2.925682962278367              2.0779264324839457              3.5228727625354153
H              3.2329706820216297              3.978506208873045              0.5887310609336711
H              2.890641690363704              4.625488427453534              0.5664796423819154
H              2.5139603445960597              1.266920134215009              0.772177009174395
H              2.0251222053245157              1.7701843708174685              0.7643178905033498
H              0.653248453125374              -1.0747971034241686              -1.9667860643462673
H              0.23553723077530223              -0.3672025756595659              -1.9308207213225892
H              4.968307701234688              2.632423077194845              1.1571520124165735
H              5.042415939972154              1.8794048895526796              1.2235070479285186
H              3.704974853282858              4.688506060851037              3.165913548778046
H              4.402523328324612              4.5130127818019465              3.030393013929189
H              3.0967309143272628              1.3547758640104433              3.392224801374834
H              2.971856191258308              2.1678455752363734              3.441155955462171
H              3.039764602978096              3.9545307251501              0.6669955331025805
H              2.558205393140307              4.196912605654608              0.12717264882922105
H              2.6906276239517606              1.452330119571395              0.9247923531306255
H              1.9973944196102476              1.779693684574387              0.912063935754047
H              0.7904723831963182              -0.9638632293879408              -1.940894310353513
H              0.38310172023427425              -0.2441661571241759              -2.0606305951839685
H              5.036163544661189              2.6631554780090356              1.2935803268431934
H              5.174280520020286              1.8233939854376362              1.4516487666938973
H              3.9033315710585814              4.447813359131863              3.0661980854839714
H              4.532393521560699              4.624366938781203              2.7039517602721457
H              3.045559330492128              1.2830971406671394              3.175757159493263
H              3.137804109620707              1.9177370152141746              3.626887857627489
H              2.6370671807754915              4.063855328695062              0.8457591658470488
H              2.637614234023554              4.3284590152041424              0.17933161885064827
