72

H              2.141571794640628              1.4080932861758484              1.1475965951660658
H              1.575140045969519              1.7507077956724773              0.7853740255464638
H              0.42011416019314757              -0.5795681105087679              -1.550155245884558
H              0.1731111003257166              0.09880471188968992              -1.8917588029407026
H              5.571280019711861              2.4238414490634512              1.3243252718675727
H              5.2332983709489636              1.9723600521432607              0.7961106081211987
H              4.104766837298559              4.7702403037589995              3.2172502921611184
H              4.212493701526683              4.21132370939377              2.7860231004438654
H              3.2315620696269822              1.437020774224583              3.17318467467304
H              3.2068251298417842              2.189728901014783              3.1528966647913372
H              3.1126372331013425              4.220530817299972              0.34795654231091616
H              2.9206714204584223              4.734422297043169              0.8571912593201592
H              2.296873368161716              1.5131416440434786              0.6258345234164656
H              1.7739690138414965              2.041792509368802              0.8522095285259081
H              0.2601987808892666              -0.7769456221555694              -1.9538301545381944
H              -0.014687975198125279              -0.05577195353399157              -2.1078207840361953
H              5.528789235023874              2.5332570588765373              1.3072738659204959
H              5.209548398661315              1.8762127912873985              1.1680286298278928
H              3.733646864049215              4.849321218522934              3.078863815613449
H              4.243797716123257              4.378459253159833              2.784954993531964
H              3.134612235610161              1.4392672443242998              3.1039138402181257
H              3.28365139992932              2.19257572601614              3.143032942297889
H              3.098664554575682              4.320653886090639              0.7220291917856614
H              2.747562708450921              4.737010247089661              0.2163729518227574
H              2.4399099398306414              1.5378205101393356              0.5172230213312637
H              1.7921281803436229              1.4905079120482043              0.7727834028033791
H              0.44450347493166115              -0.554774972967577              -2.2241023415625563
H              0.23672434267012615              0.08619390477266396              -2.293162969795828
H              5.567399355507462              2.5406182035684517              1.4115466272789718
H              4.99711077701338              2.095285722935716              1.236531843760696
H              3.9075630795144787              4.902135048709527              3.0327965047778362
H              4.117708164944897              4.306068807620757              2.6504484881464165
H              3.0748650447304366              1.2588343283085714              3.0741792831767345
H              3.403875678239028              1.9090366842882271              3.1922579792356265
H              2.9351194200387907              4.082673649692352              0.7313662797056242
H              2.633357946943516              4.655564101140352              0.3681505423842798
H              2.2744709652176596              1.7423913948318357              0.8517178374629627
H              1.5046764904515393              1.8519577361804576              0.696294212887175
H              0.6196943970224135              -0.4696553091606769              -1.830204316770211
H              0.6795844960335978              0.2744732985352271              -2.1796890179499013
H              5.687127469566021              2.4741141992209705              1.2546341522047497
H              5.122885941696771              2.302217095729115              0.7033230849671894
H              4.203459953415488              4.573838327359712              3.048081116073107
H              4.166909574181968              4.217946326633326              2.4470776405617856
H              3.710636186727314              1.2544647341664017              3.381252902657607
H              3.1785981898132394              1.7519335284633681              3.264065006137999
H              2.865290614811197              4.0848834538625              0.6557026988615443
H              2.825312116543936              4.74944480777307              0.8744749694545377
H              2.079756802813245              1.408928847267532              0.7620165750341846
H              1.4978398003080569              1.8384070564285975              0.8851302759125613
H              0.3789184716756063              -0.40984446745764475              -1.7228694248039258
H              0.7035301571683259              0.1604834274582101              -2.056939007640503
H              5.42688039799464              2.372086368807848              1.5219058826738923
H              4.901136164177374              2.302928854422243              1.0312122528755778
H              4.326896812727252              4.560021288022895              3.1529082240439124
H              3.989247129626992              3.9383287490567174              2.9094711258453834
H              3.4838157883782768              1.306969663034218              3.5193259318094214
H              3.478705658000453              1.9574974434265753              3.0190983143648094
H              3.18602509919313              3.949366764708757              0.39797827931633495
H              2.892225452151438              4.565953846598982              0.6145698484007995
H              2.1283655072260346              1.3709822029268228              0.8767815461309149
H              1.7271498744981606              1.9687199478627597              0.9912996950095992
H              0.46210555916293844              -0.5826374318151661              -1.7213784497435052
H              0.44604727692551205              0.08433565567505764              -2.0325198515306266
H              5.469989570166876              2.693510476292748              1.4205420144635355
H              5.068929116397101              1.9459574986823116              1.3392210205899404
H              4.238867630959426              4.678974074383758              3.0967147443003995
H              4.322452310820225              4.0540117510005045              2.7704058614058424
H              3.133841898577809              1.208570176397622              3.4617993165821264
H              3.335144686552941              1.8063543119745988              3.0066982784381078
H              3.4280208765565425              3.997953132750954              0.49770790613473076
H              3.017756252782692              4.5977266733066005              0.6952743435824991
