72

H              2.432522579798355              1.2906200200771278              0.5681246809582953
H              1.9880960371271799              1.8727507024027976              0.7602332937381836
H              -1.4612237133895327              -1.3257011288361034              -1.695716988731125
H              -1.2004806474699408              -1.7085405103614872              -2.461919097412941
H              5.041064506766793              2.385578180104349              1.227763688588919
H              4.867485762471347              2.437737757352965              0.47309484564759785
H              4.568669634470355              4.671749247090005              2.9356673844506993
H              4.585062950928523              3.930892875038513              3.0309328498875057
H              3.520664256421183              1.8524414289568305              3.5087289364614036
H              2.9621896779910926              2.373075124268319              3.360489305354536
H              3.1547482071848623              4.462682903520745              0.7087335233914863
H              2.511619976856647              4.614891481096746              0.37210762708025913
H              2.698358079037995              1.6863045153474172              0.7785820528331859
H              1.9096097104393963              1.7285751378359557              0.793880431103223
H              -1.681423097757909              -1.5566432500153682              -2.0173635884622767
H              -1.3891764882823707              -1.758868973802645              -2.621457209780605
H              5.1281335183295385              2.39622842167992              1.207511112696273
H              4.99607485764103              2.506375161052715              0.46138420692127025
H              4.459755028853497              4.692546760685907              3.101383180646895
H              4.473426571524839              3.9344664076886504              2.848267534208812
H              3.199864919457055              1.4755022158460136              3.442425985029687
H              2.770453508715846              2.1034901860979436              3.507941442719457
H              3.0672600403769708              4.630179528376937              0.7002634448421424
H              2.5287921677542298              4.198133301434813              0.34416317766264215
H              2.601681417038239              1.6784530866695708              0.715872538482317
H              1.8641811271692064              1.6203453734594797              0.8783553245188791
H              -1.5785232673352831              -1.3335572673872613              -2.073862989515807
H              -1.1634132781193844              -1.6177853686814123              -2.5089406716819282
H              5.250855157372243              2.2757227386728043              1.2073293850637612
H              4.929437717245509              2.5661123627011357              0.5418774367865097
H              4.5830963275278505              4.659752691950787              3.024509270340331
H              4.643575019751343              3.9536204139777946              3.1278561309912045
H              2.8938293154672405              1.7398935112293832              3.69111025859646
H              3.02892561807034              2.3378355696966646              3.5184612862682823
H              2.993073290108788              4.287721409686058              0.8288078562002523
H              2.5282360592727082              4.165783096389491              0.28793131605665884
H              2.280650911644063              1.621883175097158              0.6445661128024057
H              1.7604972024075307              1.9300128218074073              1.0550181367613312
H              -1.5141723300645056              -1.1487142489861246              -1.7528971508091504
H              -1.3665226217277846              -1.2123614942200476              -2.508646825154254
H              4.68790362425606              2.4615191088460437              1.1097741177952862
H              5.025679186135274              2.5276299070226345              0.3631373559041996
H              4.491415753763669              4.798676339625984              2.7341817292228074
H              4.8890113790770595              4.2814124075121684              3.136759634769894
H              3.493087691032892              1.5600119525460392              3.579955961158894
H              3.2787737766147718              2.2456452470875075              3.6325496181179853
H              2.7801704775361826              4.493698997210644              1.0801035781673882
H              2.831443562758905              4.489080858764782              0.36362605046657615
H              2.333580237114798              1.351351614209621              0.5135833089599626
H              1.6668099496523645              1.6915311935693893              0.8660809039096548
H              -1.3726360721009192              -1.2222409888943202              -1.7668674513445488
H              -1.2670982249604577              -1.2594671053657887              -2.4651017562462054
H              4.9704969107100325              2.2879720564786132              1.1266536740181372
H              4.715723145487036              2.1830046519348643              0.3635841624259403
H              4.177906982375326              4.7716028874275125              2.877385305654279
H              4.548123065362102              4.118308803046325              3.096184986618042
H              3.6712947207849913              1.8330288110684632              3.6488973338856194
H              3.144748273303331              1.7348795653148619              3.2705470592949286
H              3.0286286753900833              4.407277004404792              0.9907023431570965
H              3.022134589314023              4.399117764079374              0.21381404383386088
H              2.39788560524988              1.5080394760422593              0.5550602715998965
H              1.7620930753003345              1.9648278158529062              0.6641970934441532
H              -1.1379296214246835              -1.3648948918618726              -1.730760765395169
H              -1.0943817924021886              -1.4385686235729427              -2.5534717557272306
H              5.032773491077379              2.2111335956183735              1.444256998202369
H              5.18891823250727              2.220351656207729              0.6779584544283221
H              4.3695086686347615              4.651834067313968              3.0521105359763205
H              4.597551635691624              4.032570369099169              2.8321040745937123
H              3.5234181212679663              1.7826279781087475              3.6426088465642716
H              3.035391379669559              2.190420868219501              3.3132910316846735
H              3.287156183575218              4.545925717479341              0.9725540752456254
H              2.877333699738612              4.557672587043586              0.26529852793261816
