72

H              2.1601462168913352              1.3734595008992765              0.9041097194121827
H              1.645222189841389              1.909395502912778              0.8939295877283999
H              0.6753506984310064              -1.1638717987859981              -1.9542683818923214
H              -0.1151469373915065              -1.2278562669738577              -1.854091174173249
H              5.022677570576044              2.1568151180134847              0.7675127788398013
H              5.240984567650383              2.486995895920451              1.441875858091477
H              3.6095790281740734              4.690514942177189              2.6953852367402478
H              4.3208481735969855              4.665878131040877              2.858965868920927
H              2.606404073129089              2.485847941252361              3.4668122594517556
H              2.9158516987659406              2.021739910442279              3.889783870960933
H              2.8367936435013528              4.5370196643680885              0.5606414021096859
H              2.790116974263009              3.9065646625633423              0.23056731534112723
H              2.294298095085401              1.3817065373237054              1.0677739249420963
H              1.604908242258285              1.673075882878432              0.7865673342608642
H              0.39590003026608334              -1.2534903254420002              -1.761359463454819
H              -0.357931450245148              -1.3746664648632507              -1.895581973910285
H              4.95418237453583              2.161669863064062              0.7946919221496859
H              5.029035295162895              2.7301641711028024              1.3665117626455028
H              4.031626926657896              4.3961820585201945              2.501860010040575
H              4.191915876638302              4.698826765306537              3.2221056849987333
H              2.505347877784277              2.583128536741363              3.6625906207517533
H              2.846066775090752              2.0467636345407985              4.203254068031919
H              2.7156649567005045              4.463691248853093              0.2689687768792476
H              3.0156452487989873              3.816319668590303              0.25685246683356827
H              2.2131588546893344              1.3539136459905572              1.233138927640184
H              1.5124982463777068              1.3428956459493673              0.984067849454955
H              0.09693184972163482              -1.277815995067028              -1.9823788628197427
H              -0.47254152300224106              -0.9291120466678555              -1.771439182453828
H              4.84748588012416              2.328996566639634              0.6913976553672361
H              5.193420305147122              2.3519888799763806              1.3899822389092882
H              4.06892356246434              4.630612094957986              2.509721437935299
H              4.128902206672559              4.79516347925886              3.1928073160422716
H              2.2686836499846064              2.0420598265529084              3.6753338878526676
H              3.0149335771872683              1.9923151879502026              4.052044937826286
H              2.680732840865213              4.455823805959333              0.41972750194194286
H              3.030028721040082              3.804616784572377              0.48196973876774374
H              2.210172881106866              1.4296456978197332              1.2027109101987556
H              1.478268446818966              1.5514439528847888              1.1732155254938466
H              0.22740904836164405              -1.1386795021420808              -1.8388688641114437
H              -0.31065791561900924              -0.8101302734589882              -1.4372407983087694
H              4.692052330728523              2.047124698639045              0.5579011350332437
H              5.119823626601898              2.393323306709189              1.0148444944508446
H              3.8554670317673487              4.4841046487180165              2.651668591052306
H              4.190545572400731              4.836741190934978              3.2153357243762297
H              2.3015215341408513              2.3750661451796784              3.6927942461794387
H              3.06460275551115              2.325828257251825              3.691697209475425
H              2.9113874969710842              4.517122817249912              0.3256350109556107
H              2.8731169486973713              3.877371644198026              0.7101940327334123
H              2.153971541715928              1.9085864643700263              1.0644279973429553
H              1.4970846207060275              1.537832077647076              0.9904422523381257
H              0.15380785029610178              -1.038278170321123              -1.9014743808927244
H              -0.47089735325658577              -0.767687359515515              -1.5655114062143538
H              4.602020584862583              1.9857935950290682              0.8041921075937674
H              4.977933278937454              2.3311740602312283              1.3496412740759014
H              3.6901244421229293              4.840687380104768              2.4491971559858245
H              4.120665060470371              4.874137250600296              3.1124761031905304
H              2.6205888369424697              2.6739493766870863              3.7441082714434515
H              3.0871993086241813              2.048888018929997              3.632638725581722
H              2.6653706544977434              4.299582029477214              0.29913368778459354
H              3.292453518702375              4.004980191890881              0.6230949789685994
H              2.216548551052042              1.4782590798736486              1.242885155236837
H              1.939658864503633              1.5570050889984446              0.5998572242489203
H              0.39823551599452955              -0.9752308242613935              -2.218649016719546
H              -0.23535875791784122              -1.096301312005519              -1.6927396636300234
H              4.837520897902499              1.9272487811520063              0.8745007643159591
H              4.795703336474227              2.56114649923907              1.4198214956908515
H              3.6518603740638467              4.848975254582156              2.42818930477886
H              4.037313131713519              4.794058967407611              3.0022123851915556
H              2.9982447082027677              2.624405423026161              3.627702721845533
H              2.7333390837283686              1.8461253931071169              3.5359682625124305
H              2.738384972517341              4.539178092057949              0.3120827124119161
H              3.066773098346454              3.8820922839383454              0.26804281178294503
