72

H              2.382155431050205              1.7560992249810523              1.1604191331882165
H              1.7677015442180797              1.4013504405691253              1.0018247600614678
H              0.11479621417924946              -1.070185617175544              -2.054835074089275
H              -0.6618364498233525              -1.108033073855644              -1.9064512382502679
H              4.641335241521282              1.9316647053973384              0.988991040164205
H              5.027571949293328              2.6081130873404184              1.2137682487474588
H              3.9683034209310226              4.776155035856433              2.480591343650362
H              4.075013114457354              4.710233337158899              3.1847328507588286
H              2.5676218081748385              2.3024830545840165              3.6852182436020673
H              3.0439391477891835              1.7756093629813903              3.58016640106521
H              2.6506762976238765              4.3564912253976615              0.2481869128373964
H              2.974205801342963              3.7361144764216876              0.38165161414822696
H              2.2673083482711793              1.6293006344403196              1.2469345509197287
H              1.627942523319707              2.029643526829135              1.0064362310592039
H              0.3325666955094388              -1.0595149448760304              -1.9393303225807554
H              -0.3699160782588798              -0.8182549000253752              -1.7032874193895708
H              4.681787889832208              2.0006373194100266              0.9832547217214705
H              5.0769472297223              2.404345247422225              1.4266074585328208
H              3.8700766529488626              4.8202771264896365              2.6348817738937744
H              4.480550118960477              4.7904730163644675              3.0804434725944296
H              2.67549784915224              2.2223580330649635              3.348901905365151
H              3.2193557713861742              1.8292696937398487              3.337855832492069
H              2.990255638130575              4.549375872363915              0.5797828174728739
H              2.7731063775128564              3.844452125772616              0.4127407371523404
H              2.1315279482709895              1.7085681358957265              1.1402758969147793
H              1.726496227478717              2.2690845909594244              0.9052734508490635
H              0.22032855688675995              -1.1308047042190281              -1.6597578290430577
H              -0.46111120663016036              -1.2135193695856954              -1.605688099919611
H              4.770886643861947              1.9435413560364492              0.9391594222369866
H              4.841996233216249              2.633546564574937              1.1565405302773726
H              4.0145715561413295              4.6910138240181              2.5982183334909137
H              4.378125336108465              4.746679881550127              3.2203177925156856
H              2.7051465818460914              2.597646822104328              3.6435156171015644
H              3.0081454024849417              1.8628970204126363              3.3757750898569348
H              3.156366638088858              4.540324591911946              0.14310607061099093
H              2.903009527770425              4.000901259782953              0.5455905396926494
H              2.2782686901912137              1.6594057187984925              1.0913725770109792
H              1.7673446627262253              1.9493369049129483              0.6221661236104107
H              -0.05673415899446013              -1.2535487298194954              -1.9070142005561415
H              -0.704357912451078              -1.4384860477545736              -1.9025980407475571
H              5.042220688384236              1.9994869573400025              1.2487967065874115
H              5.071870265221635              2.696525429822749              1.5265220194168492
H              4.227199848422033              5.031184205446472              2.431273308033947
H              4.122119031150039              4.637258229792299              3.078535825802362
H              2.349497433270109              2.402693835249846              3.8576895985391366
H              2.7529528237806353              1.7536883419919127              3.6996387269497575
H              2.803658120299342              4.248179788672425              0.12084609605370965
H              3.16065490089467              3.835530579743248              0.5618141928599824
H              2.3104809522587826              1.2017247407269573              1.2459018914697375
H              2.025009674851164              1.7549618180802684              0.7361094113681889
H              0.09447974628441394              -1.1467709735524405              -1.9701244989172733
H              -0.6443065299036338              -1.5352882882199035              -1.8588342186432785
H              5.0353448255615145              2.1861325851726585              1.018436615176826
H              5.14960501560228              2.946171780797033              1.2242061867338188
H              4.2821681947102235              4.76838537244558              2.4173482525819723
H              4.201954542971227              4.778018775647961              3.206035129625339
H              2.1062317733922455              2.30982541168968              3.7755219877540585
H              2.8739591229859287              2.3703963193671878              3.6134485258653757
H              2.748885043040751              4.393107949509094              0.2994839044530417
H              2.74482256405364              3.6599034248404463              0.5041604278599411
H              2.2302045156130235              1.6002338847464628              0.8890955118437425
H              1.6777661626245792              1.5723339944932477              1.294648535007869
H              0.02046429308218454              -1.145110281198646              -1.8556086166423322
H              -0.8140013168399923              -1.2234691125238972              -1.9170787662100768
H              4.697350685786618              2.324729232794019              0.7311660122106078
H              5.274580527495197              2.650390257053303              1.0827922695177257
H              3.9322723240833772              4.795591332733325              2.5273342664941256
H              4.251553555662206              4.82023112164527              3.1247087399482982
H              2.2980838738137654              2.1663923977034414              3.750819781496577
H              3.0200079564189424              2.3624632693215175              3.6562416355112943
H              2.522690147805469              4.36755497052069              0.3934507488115373
H              2.869844014479723              3.6543660107427183              0.5582159865321361
