72

H              2.3632515451821465              1.6869016119089395              0.9538333169008647
H              1.6540699784314024              1.5479593942187189              1.2335811937385766
H              -0.033450736878014815              -1.092959394855536              -1.9458844518433338
H              -0.710929647874656              -1.124800277165277              -1.784915405564434
H              4.788128985951184              1.8787911421379702              1.0899607485521843
H              5.0405880229615              2.5561791152285136              1.0199578216043048
H              4.124328415444499              4.870849957983513              2.595651523250003
H              4.0747775552214165              4.6601855973005275              3.284294632867506
H              2.3309381903576623              2.2249180911258883              3.8182146653261495
H              2.90021775381913              1.904577714913341              3.431049880668564
H              2.8104324343254867              4.295559836320143              0.29179125244801113
H              2.9808950256624667              3.620218781975163              0.5115039984161336
H              2.2676680275601915              1.8981146154619835              1.333101678420817
H              1.7553762581444543              2.0807382532199226              0.8166102848595873
H              0.15108496835231827              -0.9877889887643043              -1.8129075415564775
H              -0.6376521525568649              -0.9207441180974857              -1.725820915619901
H              4.556419464271125              2.071533016061131              1.1819924005965023
H              5.011764627125704              2.6381392390327436              1.363758433760021
H              4.067001800684088              4.909471850665892              2.440113543772337
H              4.454785803946419              4.850875489601255              3.0686879870667605
H              2.542233218850267              2.338617680774637              3.5711378388434296
H              3.235997361124615              2.1854545221107418              3.3271786138836856
H              2.9594214189463335              4.468183844685139              0.5819276102759023
H              2.92785208084623              3.7197761313671123              0.5995167005307257
H              2.320768130769048              1.5812363232338558              1.1095619598303628
H              1.797195626035684              1.9949329229709925              0.812467886968406
H              0.016662101960548327              -0.9908166262390382              -1.8979201550681377
H              -0.5909890285203945              -1.2673780456874815              -1.7290462973614007
H              4.611053530465896              2.0338273112337437              0.9701920980769903
H              4.782893201144393              2.659521211532569              1.1753696265193931
H              3.811714921059396              4.916549498267097              2.50268620881195
H              4.2886118445693              4.712517545793425              3.0569959848169446
H              2.8515687864579236              2.5037607570439544              3.596541714669946
H              3.048862244680599              1.858337979370671              3.1633872594594608
H              3.0171523792174786              4.389688334787671              0.1149194835402086
H              2.7780711153831628              3.8806467558318847              0.5729874697782291
H              2.313560209788799              1.6561681458715303              1.0101968331956779
H              1.8854988927042478              2.1335585531487293              0.6772359198025341
H              0.12307563429441955              -1.2653546562685345              -1.9727172878504902
H              -0.4699252945321453              -1.582368681550846              -2.066421486856168
H              5.058036414638006              1.9389375982680848              1.3775005513087821
H              5.275783328622841              2.7865416181421567              1.4005954300603938
H              4.058177188681721              5.006777951619862              2.4853422574888024
H              4.1699429663852              4.43075985361584              3.0179612032317733
H              2.392216510944808              2.335755505383766              3.7622239907471497
H              2.857087020558012              1.6759125060038995              3.4681088671900246
H              2.7885133092775485              4.37309279653528              0.18009786093058544
H              2.984463569531132              3.7980381346331082              0.455564554501572
H              2.165201347618084              1.2119037212914705              1.1634843837404174
H              2.1025768000195217              1.9027751398042576              0.8274604961568448
H              0.10753924168753244              -1.1994420131801748              -1.7394088042054356
H              -0.6091961926901976              -1.556115778050637              -2.0092978698649144
H              5.099007635872161              2.207032899355087              1.1584465834839057
H              5.079599053679999              2.9273310723265027              1.3361578145405
H              4.405364305647487              4.609481900405268              2.485652391123806
H              4.398570218759972              4.711667556287164              3.2484708349099467
H              2.260667417360642              2.4589413559287205              3.5671879601651915
H              2.927955268430662              2.1685435075122537              3.7665724696481466
H              2.6965555594078547              4.465568840996845              0.2776467290115205
H              2.7767307520207978              3.719308324766927              0.27544474583398626
H              2.3042375393982373              1.6103333602446814              1.0143412944547885
H              1.667066933428285              1.6802086913868954              1.3334557209190645
H              -0.17011315561773263              -1.2921368000692128              -1.879137570648747
H              -0.9812732413202744              -1.1466697399497086              -1.8758781634186905
H              4.7174317271330075              2.4202730859934847              0.6390404658180764
H              5.184629170442724              2.55407561450194              1.2027349198172261
H              4.1851304291990985              4.841953780802256              2.521274247708751
H              4.360555030196036              4.848740556725069              3.236935619983685
H              2.3886042988297946              1.766196383783609              3.8344726965199225
H              2.984958051739477              2.1889981285809244              3.4957050435326154
H              2.6812599732357367              4.459732557664417              0.294047062312385
H              2.8331944190364795              3.760233570224422              0.6227353126497215
