72

H              2.2012197945576766              1.3473841715722692              0.9759058785114327
H              1.5842106138050653              1.7285189227070734              0.7859633747784324
H              0.4163593617308923              -0.7681041285205242              -1.8737833279060683
H              0.29895963620569377              -0.026819635829220277              -2.0333259865413145
H              5.712300645564819              2.6865106130798027              1.342029437345637
H              5.259094065851089              2.028543888038877              1.2761475093135082
H              4.023826107867715              5.002475156749525              2.9564746658595604
H              4.392997022924358              4.442768447040047              2.90996247008556
H              3.1153822537029283              1.5153129707039568              3.1257229070188592
H              3.4166623750861036              2.116083012816645              2.9680762704321295
H              3.3770180099226983              4.145814389054109              0.37369343405180505
H              2.960322336693292              4.601405507138604              0.7417536585471256
H              2.478085445446802              1.370114956484796              0.8378729275828405
H              1.9461714172199425              1.816403144590951              0.6542116309993096
H              0.38303007694746005              -0.9078756464370588              -2.0032300792279116
H              0.20613113399680136              -0.08155439902368863              -2.1302870282041795
H              5.405985047854646              2.6227082062712537              1.3069481241919487
H              5.2512502352113115              1.95574697018866              0.8996368559964891
H              3.8260241510924415              4.7219825094009              3.1277165956979434
H              4.292640326616967              4.294260605524335              2.7916271818842455
H              2.9799630921225546              1.342181865021258              3.2845219147711235
H              3.1667987234595127              2.0388969326751063              3.1948133316936995
H              3.1785382191504636              4.0402306434497826              0.7005936714325431
H              2.590436989021466              4.471282373215407              0.42410332587725236
H              2.39798086614013              1.4419160293758106              0.9109520825739041
H              1.7124258966261499              1.7636747580088672              0.88649586827124
H              0.46558051519343585              -0.5919475285891596              -1.7437355056740167
H              0.3341284854302195              -0.09296779020651262              -2.21966293474871
H              5.587212258026814              2.4526557608944204              1.5196757462702706
H              5.253724078508306              2.0018683892392297              1.0663116839893336
H              4.098126090673998              4.512343442142311              3.216376684960933
H              4.250942206642835              4.250258275862493              2.524122329786538
H              3.1869843870956918              1.2929222370685294              3.395473574137184
H              3.262200307588423              2.010116997664053              3.1804972335643913
H              2.8028042344451216              4.160936687404617              0.8653210344107547
H              2.5683190559440727              4.701028059459838              0.38786654558748385
H              2.2481950118518808              1.6662537478239765              0.550812667731128
H              1.7067030707691944              1.9033738879438495              1.0816470757578476
H              0.4811253973464778              -0.43206576123874896              -1.7519668808331725
H              0.3936811951490656              0.17904721610747376              -2.0422595507839776
H              5.429523276660745              2.545634584603211              1.069125513233434
H              4.9432876282581              1.98476837124969              1.1175167344542247
H              3.9099192351301126              4.492992312004391              3.0943798817030355
H              4.308319617132668              4.193586100543289              2.5720230581445525
H              3.7929111618134743              1.389240322854541              3.3324163588900095
H              3.141300211759287              1.736028472544334              3.217989472745205
H              2.7841433344188067              3.9756726327501775              0.5585277121916022
H              2.816766137223334              4.709561615455502              0.4792355461968486
H              1.9526410470731013              1.6017119156815722              0.9475781797955699
H              1.4428101448720319              1.8587544413893744              0.4907817653735283
H              0.5350071682563281              -0.5171200456669738              -1.8359165049103112
H              0.676753232674605              0.27608240603037604              -2.0018692185446474
H              5.346410234161863              2.420424817695188              1.497691288851001
H              5.005810528305028              1.9922962804947217              0.9380770019113085
H              4.110513849730857              4.826264012037264              3.1276223825310203
H              3.9820880337571336              4.164895975097764              2.8015278349911386
H              3.442849616484638              0.849533636417443              3.234587335323994
H              3.4120124619330294              1.5741625172266407              3.5981608398809515
H              2.935128598930389              4.007132539508779              0.5857538671161532
H              2.9850655798632517              4.7469056717348295              0.5878045905561765
H              2.1466369196046964              1.3666711715343156              0.8568465775599798
H              1.4916445388041368              1.7464959762562746              0.8875099573357826
H              0.9321387497584455              -0.6456449717440309              -1.7715946433998995
H              0.6143083274750215              0.0807433009225546              -1.828826982598098
H              5.62946817813513              2.497163892818483              1.4382355263917617
H              4.909817649408117              2.0593080303702838              1.4043693868420133
H              4.266636186637417              4.823655703652985              3.1954949705862083
H              4.193246334765669              4.3252513575931255              2.718534146335811
H              3.323426614295993              1.2672717285382156              3.5158936614489567
H              3.189804360024152              1.908586269992639              3.044249217891167
H              3.373532334184623              4.095694677713723              0.521811006752113
H              3.077948358028351              4.746570295487781              0.5713942064277768
