72

H              1.0345684920702187              0.7142612328917697              -0.5361228517431099
H              1.5726134840346904              0.8588874345589885              0.0627565293162856
H              -1.0345811127888542              -2.115847975857485              -2.1341444855943283
H              -1.758443587913443              -2.2964984474725356              -1.834693537938397
H              4.056969935585881              0.8708092384057684              1.278552848721164
H              4.4136629728430385              1.4351592245495186              1.052528930829662
H              3.9758940271123913              3.744656338499871              2.7734064672842984
H              4.310791774751411              4.2090307415898724              3.2090007001175
H              1.3064929207893397              2.0515696207551435              2.8875447892651476
H              1.5716795251482343              2.3458370233049575              2.29156913936316
H              2.6235751398531075              4.308532691383874              0.0503464008032964
H              1.9614292007368441              3.9428304486213177              0.26655996899518863
H              0.7498712818283377              0.8823571925810774              -0.34579196278948193
H              1.3762385729402709              0.7289633302053028              -0.04670087543579031
H              -1.0233524055168772              -2.221820528397018              -2.026898959282652
H              -1.7274055879523444              -2.121370803385432              -1.9302591887372234
H              4.099456214975189              0.903023714482154              1.2285914863222698
H              4.201374005207218              1.6373109974408218              1.1094352651235921
H              3.8289635517111402              3.6686575716744225              2.907588854123717
H              4.173038150298291              4.275773984532119              3.010384990830331
H              1.2801407327097079              2.1010668974266355              2.919543540319777
H              1.8088546601724629              2.188206218616705              2.3568614409696935
H              2.860842852579636              3.8713348405561505              -0.09113600214574562
H              2.1377258781564796              3.7140468347148814              -0.009308413562342957
H              0.822288713089317              0.5911869223220675              -0.2909322747095398
H              1.4194325335426659              0.9441616250045468              -0.4626119718909127
H              -1.1339703314084486              -2.526251154909499              -2.3157565503932487
H              -1.675106220151237              -2.1890677440441153              -1.9751115128160908
H              3.675454819205351              1.2019059784577555              1.2938739619592647
H              4.303930181478964              1.3691366917039904              0.9584059401394847
H              3.5201097372018184              3.7917765001096297              2.7018168330793233
H              4.083903240524061              4.016134390000762              3.0771339154534476
H              2.075966028180682              2.067252211352464              2.616007046263647
H              1.538477343811255              2.358850071783215              2.1368319150050965
H              2.818461730139643              3.917528350190658              -0.15422271302579815
H              2.245432149441376              3.9444657858070675              0.38398067215854187
H              0.5760433687418364              1.0486415756499174              -0.31589480182463425
H              1.2778022139685208              0.9699611118638365              -0.47851177128595346
H              -1.079670452880999              -2.2863202075445006              -2.2315749036458135
H              -1.7362181470326812              -2.658284770951172              -1.9501081907653992
H              3.460644559171164              0.8849809980216369              1.3016153697762791
H              4.187080389437922              1.3032929184310362              1.374072568326513
H              3.60669923305939              3.7230263016971605              2.751087661698248
H              4.019288233772833              4.079344448401782              3.205372468992227
H              1.7658140955289274              2.1670237512685673              2.875398025311681
H              1.3487969241015434              2.122612121848625              2.2931667011621966
H              2.5625901040508188              3.7524453772435615              0.018475820830963732
H              1.9024249893888012              3.831731414328055              0.4291007650552475
H              0.690654198131377              1.0785972387630491              -0.28638358597109254
H              1.258945126118024              0.8008580184146595              -0.5518674679466339
H              -1.4128224925232302              -2.2876299172563623              -2.332524069907455
H              -1.904899735001797              -2.7604982357483903              -1.9749428930574984
H              3.7775215701500446              0.8835367356383628              1.4271858285857308
H              4.341885694115978              1.2950641640592482              1.1526855270684266
H              3.6193237742014315              4.191831474899128              2.8413337258264373
H              4.2673555498245745              4.2877502297850185              2.9036639523205845
H              1.8414687532486487              1.9584393180479527              2.8402915563998103
H              1.5191826636510806              2.2725402830647705              2.1914243168578014
H              2.516721644393775              4.136274796600518              0.4242409333809707
H              1.8383316277099042              4.002451463562604              0.2009885828477282
H              0.740109604700813              0.9972891258786276              -0.738679077896219
H              1.3506486824946378              1.000430351974832              -0.3076213517469554
H              -1.489598331331006              -2.110353232628702              -2.4010154589671635
H              -2.0335759598934593              -2.497268052273975              -1.9981945415004785
H              3.7392292379720784              0.8021876820458876              1.1093238760538158
H              4.318818717425468              1.329208286614562              0.8573659014333516
H              3.6414615867747027              3.982944991538202              2.8614320259236705
H              4.2152249806439706              4.253337183987355              3.219844545131988
H              1.5703684959593607              1.9434569307488867              2.872785896987345
H              1.478598844661708              2.44396593650758              2.2540730946464946
H              2.4731329838007423              4.303936516085183              0.032110095620545974
H              1.8332683997457297              3.977146596291365              0.29131212454032923
