72

H              2.5182686985210236              1.6718333740363085              0.6073435020667106
H              1.9520791622303157              1.242474261649781              0.8352146776564703
H              0.8082290731676689              -1.126594150499553              -2.2514681387905924
H              0.4612697530060957              -0.5180557213160819              -1.8430327002482993
H              4.59944759755152              2.345570971394237              0.9580408035354635
H              4.699241592670259              2.0075520027551113              1.5931436657829843
H              3.5052632640360986              4.645298258866263              2.7167575883743447
H              4.177785145520994              4.403651801729163              2.9815200350961826
H              3.210015511641282              1.8326620233097146              3.385024446242801
H              2.9571494815353287              2.112764887449318              4.0866357189422065
H              2.740583303082252              3.764236275328609              0.4966179259521811
H              2.74685030619359              4.303849182487086              -0.030819534879126535
H              2.3140706162423434              1.487307609847488              1.2645895852430324
H              1.8382814032114458              1.5694813197019921              0.6962560495182866
H              0.9785846796606972              -1.1267065712797528              -1.8823313889358833
H              0.7448462502113778              -0.460474155089209              -1.6628860951703843
H              4.787305790170738              2.558637646728889              0.8607368614500418
H              4.832795191544025              1.9762726556289967              1.3635785573906138
H              3.827062130826993              4.323048251341128              2.9414321247071387
H              4.5800975858561745              4.624638546095228              2.917711949120355
H              3.1569292414379286              1.7501951055068896              3.484501206490653
H              2.9530871777217627              2.086490613538666              3.991535192381133
H              2.9162692940124306              4.246115685324334              0.8040707291868522
H              2.84500893588439              4.179588528387397              0.06968214378107997
H              2.116565404203284              1.3324122111764256              1.1050604249086797
H              1.5209192216281806              1.7487378695019644              0.8904531417940662
H              0.6773077222388767              -1.1353628588097249              -1.534067883661815
H              0.3200857339618144              -0.505834116454539              -1.487827621942331
H              4.602526674663845              2.475794934073111              0.8085091717339155
H              4.870238763859613              1.8346144222936405              1.0961534450969361
H              3.8511719093479844              4.359657197483645              3.2519399283021215
H              4.455934266111366              4.62278557811407              3.038404688220331
H              3.276953840734763              2.168420959491324              3.613309853178656
H              2.723837464758995              2.0912355688042403              4.010656431787473
H              2.866436126553684              4.259509301649119              0.72618413755423
H              3.1765435084237326              4.108707253218647              0.08353471754955819
H              2.338538071920809              1.2606780078901916              1.0757030401474537
H              1.9106169571944835              1.7875730684691904              0.7761390528014874
H              0.6276001816654212              -1.1884012164529785              -1.828004920077188
H              -0.14253211520605116              -0.7293088089646286              -1.6072414000264732
H              4.486398900041332              2.153031320646451              0.8312576022946484
H              4.889651328682086              2.242935218268011              1.5521699326767224
H              3.8401041634809086              4.501522321581135              2.7675934740956607
H              4.244898962506372              4.845956621989664              3.2576659755890818
H              2.9577045197294054              2.395263999916651              3.5798782270107217
H              2.6889397369304264              1.8288898515223324              3.983167945925529
H              2.8264543517055656              4.130272794422134              0.6136107729840705
H              3.378746671956106              4.086884244147892              0.08250656203032279
H              2.5163208051003654              1.3438684044292264              1.1512790279060807
H              1.9332503923319049              1.3661979077725825              0.7160022073663146
H              0.6704305934125049              -0.9014206618129795              -1.9248570147386126
H              0.06263634069668007              -0.721799651655176              -1.7067192140302725
H              4.70914719776493              2.3598091493536955              0.7615589322302931
H              4.961050324777527              2.046634389861159              1.3405546453774662
H              3.669681754419274              4.5593428104670215              2.756033759379335
H              4.236410199417463              4.968580836198763              3.0684894045514817
H              2.7407757811781233              2.4364311023061895              3.1961110481429738
H              2.9333376047701485              2.308155662345558              3.8323835259238352
H              2.5488514750819053              4.069820892987521              0.7332243277089966
H              3.0052948699354847              4.1074052906458345              0.21438583697081856
H              2.611585726019074              1.8315266772632681              0.9681398518394727
H              2.002133302725643              1.620337493311728              0.6610875418977838
H              0.7312657616140341              -1.0039216993235351              -2.073504470056322
H              0.20918725563978252              -0.7242187544180256              -1.6889157076947854
H              4.534178286135237              2.4276708506453395              0.6604322696056718
H              4.913175914224475              2.0051040107933353              1.0954093736979615
H              3.4792637895689316              4.496148013267983              2.711248965683587
H              4.1734906627816715              4.764509926166986              2.874919063559834
H              3.0306243041917145              2.4822784874210826              3.2931174861704537
H              3.030816463574712              2.2527155321133523              3.972604732327027
H              2.533146545023597              4.093527543306538              0.7644701344327548
H              2.8238282210972168              4.168066376418489              0.13474676499024363
