72

H              2.3799285466418656              1.7286928671847313              1.079591016025652
H              1.749873043380593              1.5664845333931692              0.7050409908379983
H              0.9093925091765904              -0.7065633216824629              -1.769282399589734
H              0.7224544759087868              0.11749004316967791              -1.816529756767238
H              5.160692981771256              2.4951918851927624              1.1139712026467068
H              4.835549830227867              1.8793916973014482              0.8471006854775781
H              3.997421850588319              4.431237610092418              3.260459191204415
H              4.326883722342641              4.484283755467908              2.5586992505173236
H              3.671005908944916              1.3329072279543361              3.405996229982624
H              3.0690994358030848              1.9267829436256556              3.407950969131223
H              2.447982279705414              3.9316199841264465              0.5540777534617
H              2.7543401185185203              4.61233048388379              0.4275216865845937
H              2.0460036004466065              1.5392499256240808              0.95652630930863
H              1.5216891997936892              2.071353704186263              0.693285738486992
H              0.7271725665652553              -0.7013812822073302              -1.7331146895867633
H              0.8381266724341566              -0.045638360820742914              -1.8470188473169886
H              5.01772282497981              2.4886798737612774              1.288104560397402
H              4.884393030336159              1.7841048534742066              1.271003569870039
H              3.9229843584914983              4.800970395778145              3.2312467119541757
H              4.385618749817956              4.34761552263897              2.8247387070885184
H              3.6877634037200253              1.102057658415392              3.630837775771766
H              3.1701401070294914              1.6704293877038798              3.426144700533443
H              2.895902576873221              3.9828559171903772              0.5243942875518183
H              2.951106704884632              4.642030039385065              0.2534451899686076
H              2.2458880185860064              1.2147372521273492              0.9010906715160958
H              1.6936299181061578              1.6870081863812265              0.9091310929908654
H              0.984963675458424              -0.8213143096513958              -1.8349812477986023
H              0.6409490611815303              -0.10914596231599946              -1.7636898930867424
H              5.154781987972416              2.528973160788176              1.2331030455491243
H              4.814892268244843              1.960651638487671              1.7255283270206323
H              4.059552032117066              4.943100329812643              3.183979140480932
H              4.470392269321951              4.442293548877338              2.9805746577182997
H              3.406413353054839              1.194407967774918              3.4902823970791443
H              2.9279150331264647              1.76530871061822              3.2993784624662275
H              3.3184872085533548              3.911163397243673              0.4387500966499897
H              2.9893318627681413              4.53668489865929              0.31112100054840586
H              2.115175651299492              1.5606071001847959              1.288259112391588
H              1.761196693385582              1.650217169530004              0.7148380230277934
H              0.8754496674007648              -0.9277875574534789              -1.6489434202803523
H              0.3919556261677911              -0.24489231791801241              -1.7906053256930585
H              5.383437844949298              2.669045296796134              1.1794197098734118
H              5.2698445897062856              1.8916849131541178              1.1744285990790406
H              4.019438043344014              4.892491618534921              3.190940637639519
H              4.554765253941747              4.66047996939117              2.80371722054492
H              3.267375880586366              1.4752666608699534              3.139008174026739
H              2.9549692390584297              2.0583246890227915              3.5456301515748385
H              3.2083418577839953              4.038124312741491              0.6958160156112411
H              2.868806095701099              4.680110636754695              0.539700623658648
H              2.529117357730826              1.2943955423714288              0.7095236307716165
H              2.0064522834399514              1.8051474466598476              0.883749368359947
H              0.6284819013433376              -0.9541425191627436              -1.9361053841839546
H              0.1659296976175889              -0.4416765166618978              -1.8950089677461404
H              5.026455507955934              2.5650810861817996              1.1049638136374673
H              5.091712042974926              1.86917606469827              1.3505960697980877
H              3.6950999624241927              4.708387534809202              3.1387685172602353
H              4.4120356405056596              4.585160556846586              3.0065799795781927
H              3.2055302335050726              1.5454902842905072              3.299114511876028
H              2.926770931964145              2.186951596986728              3.344910996690782
H              3.008080279911223              4.050253331910686              0.6117677790627036
H              2.6075224148107785              4.30431114197501              0.09475334804473519
H              2.6697579266473075              1.4975069297311574              0.894816365197794
H              1.9748836220358388              1.6653836344372008              0.7820115898873246
H              0.665798834293511              -0.8592185520563304              -2.1101985305545563
H              0.39242832816924467              -0.24399582072675877              -2.1107119879054443
H              5.121543987611721              2.6266545486801913              1.3102493844792624
H              5.169719654105285              1.883084739452627              1.4293145539958232
H              3.79226348905171              4.632235474865201              2.969207975463931
H              4.488884944467028              4.627649066157069              2.747313680405138
H              3.058036189466656              1.2791094047331764              3.0817285516454014
H              3.222151506245053              1.7858595510653072              3.5792121180681513
H              2.6295260394004307              4.018056499445174              0.8108511173634658
H              2.6131809390754746              4.418406075353228              0.17360194183692298
