72

H              1.46646658057233              1.584471040704507              0.1591746877033741
H              1.5181323946268965              1.108573946382231              0.7083064205919917
H              -1.4103644035949552              -0.014129424087287382              -2.0025591963074976
H              -0.5594941232750279              0.003693778109565579              -2.0923487885370027
H              4.134367256707547              1.7764005550372948              0.4568573806725436
H              4.266119518122562              2.4853272210442747              0.46849454868203755
H              3.7060880119961914              3.9663479358065477              2.5244450538077374
H              4.077156909237382              4.523394427986934              2.9013843619534962
H              2.014524796599106              1.7772500580285762              2.7235457842702195
H              2.611715503955919              1.5786238224004874              2.9803977937591757
H              2.055741368240041              4.093688810946314              0.323772596902319
H              2.061736245967536              4.477449363123168              1.0161261276265736
H              1.5945897823980473              1.4272806385164207              0.25857466119913736
H              1.1471549886712387              1.1550544141753698              0.8691323304417821
H              -1.3388305877946785              -0.05781165023673871              -2.251321156078983
H              -0.6533171755014143              -0.19237931168707997              -2.138477583947999
H              4.322728113403853              1.7606679377955976              0.64481436035408
H              4.723569849268229              2.373170929184531              0.6564186700278284
H              3.5828625371985927              3.913964271535496              3.0361577640918265
H              3.892746500206568              4.6188328319936565              2.8813911242680623
H              2.273780823695618              2.1200399039348237              2.3513053800256962
H              2.409031840475147              1.6533251298880118              2.8456963121907175
H              2.3789524345646926              4.077677694338475              0.1695051039663585
H              2.119226333338191              4.325088830627918              0.8081389359990901
H              1.6029375076266466              1.776963271826092              0.11791922560771483
H              1.2809996809804147              1.2521210999057912              0.48482601209764536
H              -1.0971944884290856              -0.35285403439544827              -2.3482788761227145
H              -0.4863634244571932              -0.08863048902182412              -2.2047698132432134
H              4.466210712351386              1.7710831067454624              0.7214062399306757
H              4.7505695085618855              2.3228719203787733              0.4403393738934373
H              3.5185242843541              4.009207958867831              2.93827589818221
H              3.8621132743686077              4.625093911436659              2.9343638494806097
H              2.1249007316450395              1.8420268830337998              2.4906821608933103
H              2.2354353102783566              1.9693383948159495              3.201997922169809
H              2.4184416095779              3.9190634788376326              0.18093610301042856
H              1.9842384429182536              3.860897529978212              0.7182422574929381
H              1.5584138795776554              1.841297552798448              0.2157440753728475
H              1.2542049509952082              1.2377206612472402              0.32955523932193115
H              -1.3041401397793566              -0.2764253451902948              -2.3516059350921092
H              -0.5721701124738712              -0.36178211769480934              -2.0601200864880886
H              4.288890058423148              1.692308576866692              0.7211664615645323
H              4.60515205735953              2.404369749461293              0.47846393995403214
H              3.5536670797018743              4.216405373861549              2.9318970137498352
H              4.084159887335785              4.678240397253646              2.7015572633623566
H              2.330425265898848              1.692824781742899              2.7092996212007026
H              2.367387826223547              2.0323933510530736              3.3361594192875224
H              2.4798902578643762              4.0769426945192455              0.5424092837347309
H              1.7661543124036942              4.146854803771312              0.7445572734320456
H              1.4937202459191932              1.9053032540276287              -0.018224618757187425
H              1.225248754043528              1.2645207102046476              0.3164873190074253
H              -1.5952424088727075              -0.32389245623079777              -2.2987746378599234
H              -0.8259192207086565              -0.500259069972312              -2.250930810132291
H              4.371138614557406              1.7450760816650919              0.6526798689674094
H              4.527382541832829              2.421800666540848              0.8356916173797143
H              3.4149021608909753              4.259660519540881              2.9736803099669635
H              3.935823019136815              4.483762123042912              2.5613866696355947
H              1.9284402522454915              1.6051344620555381              2.6895858877255043
H              2.341147867488953              2.10593105235468              3.185876407085545
H              2.391432678495579              4.232902787776803              0.5756324245336848
H              1.732132502983405              3.995693070934684              0.8382594380634152
H              1.4027663224039366              1.761916219887423              0.022628170501563755
H              1.5082698078324928              1.0757646592132355              0.36583962836849493
H              -1.504427892542192              -0.17052046142484534              -2.1805226556092876
H              -0.8552839838782257              -0.3069860340134554              -2.5002033751004187
H              4.277519668848225              1.7539730734943906              0.7927100231375352
H              4.453029348544916              2.4455770542137447              0.7383202155669191
H              3.5766514050710048              4.069750944179705              2.512853124579695
H              4.0340702089739064              4.566002518359098              2.8594759892112904
H              1.9972775807821135              1.4457831045412932              2.688596853441542
H              2.3806957401973134              1.9277156367518826              3.0507762326248087
H              2.0840643479754517              4.043614684685734              0.47985294199076334
H              1.8343645459555609              4.327020892795695              1.086438853700643
