72

H              1.5428182865297115              1.695611440370566              -0.24241198054247323
H              1.2271667831715105              1.1665058647882036              0.28591522881066345
H              -1.339805032947642              -0.35284386454430794              -2.399478458064623
H              -0.6807408943279576              -0.5419087872205716              -2.557396744453018
H              4.408085213599791              1.8225578877125959              0.7638138824800933
H              4.757871367039461              2.4435499328780845              0.798474573858559
H              3.6767910114497613              4.071235557164315              2.999076199990199
H              3.932235048150027              4.695466505047442              2.7190489724936135
H              1.8153985270265667              1.9684688970898607              2.208081799032596
H              2.3065257597201962              2.110597830630102              2.793193679454735
H              2.205472998275346              3.8884088744240257              0.2717492271978418
H              1.7617058039369606              4.050067591876353              0.912852469953717
H              1.5065572689778868              1.5592147056599266              -0.2645503203069913
H              1.641458593191407              1.2481363717147678              0.36723149109192493
H              -1.2355156680073827              -0.19731090093299394              -2.0882571770299743
H              -0.5138516958959869              -0.40096977434004005              -2.103655977896275
H              4.325402186227395              1.75803854505293              0.3914176006449667
H              4.378097847482963              2.4400358591234057              0.6162272429537291
H              3.974121198966804              3.824348791580462              2.8885735544256783
H              4.0283607692269765              4.554227654164774              2.8008401432157943
H              2.010072779412039              1.815285405991405              2.543764178204949
H              2.1615594838020624              2.014609349783518              3.2601222461849524
H              1.9932892277216427              3.77482852785674              0.31485163191380366
H              1.7139021249665864              3.993533922505409              0.9451294349997807
H              1.5274632849075873              1.6287495638055853              0.09782427825846635
H              1.4596165235438325              0.9704589732499243              0.5594491686305378
H              -1.4855968937121655              -0.1905215458881135              -2.127422075754607
H              -0.9628565831749465              -0.6311009557141365              -1.7506524200621336
H              4.223838047833802              1.672422082863262              0.5034582450482425
H              4.587120903564781              2.2687863756502176              0.6407501341665705
H              3.732967533650121              3.957928969826213              3.0722719684116395
H              4.165265584376686              4.350138450422583              2.6291385736649615
H              2.2749754073091384              1.8519047812226463              2.5470591577562876
H              1.9270076928128748              1.7643613404223184              3.273250387137629
H              2.194096451908342              4.105970060931901              0.461673235288505
H              1.624851501761395              4.382819093443448              0.8813588943667323
H              1.7418616975338943              1.4494650203439288              -0.02717911031203185
H              1.2213770058830964              1.1453571692357578              0.41515152910076775
H              -1.6453129443163959              -0.4428173456323567              -2.3012236569917817
H              -1.1043068210377445              -0.4441779864821624              -1.9672407981146514
H              4.042383206045939              1.6660518121241417              0.7509783507593066
H              4.620683863969266              2.1510861684856537              0.8621308409824824
H              3.3623755398200315              3.994974347427568              3.067196988833668
H              3.8493182286021144              4.347649918683895              2.6634960450562635
H              1.693849341023822              1.9651274073298832              2.5135183012812887
H              2.0581025357410265              1.7162466317928549              3.206254061344805
H              2.073922119580523              3.990701531834831              0.28358500076405047
H              1.6793903539457287              3.992128324494876              0.9211945331709641
H              1.656677294195581              1.6184967296237525              -0.06491485655930943
H              1.2886972430597399              1.1064164778208414              0.35969276551313717
H              -1.6360831853008486              -0.4721895324882617              -2.436097194123832
H              -0.8829160091800883              -0.25615691474985675              -2.155167183350565
H              4.119853682159829              1.7706240278180185              0.9874132233494813
H              4.406923078124451              2.2237782551956964              0.5346559971426266
H              3.4132020264114704              4.360741973870481              2.7105753859012838
H              4.030291745914631              4.585978078005387              2.605808610359989
H              1.888741227459144              1.7101112567172763              2.540114087016233
H              2.287564487542876              1.8756270810803688              3.1090587906811877
H              1.9988190202540819              3.8781494155145464              0.4342267620577465
H              1.7817938398582673              4.3792698374716625              0.8415377692963252
H              1.7069417235488702              1.4891210206756773              0.0030303083002294422
H              1.0646388609509114              1.267571108640632              0.17908447860183835
H              -1.5720394708356573              -0.30204689401675205              -2.47460604282455
H              -0.803951108431586              -0.3676058226613034              -2.231204483127584
H              4.071257433341206              1.8007513710117335              0.6272694555740317
H              4.323672772942214              2.4507191538825475              0.7238682109667509
H              3.5147111813097696              4.4007417169850065              3.103752482184293
H              3.797422828902527              4.5965749515632615              2.451542589560209
H              1.946429853920793              2.1994785101069745              2.3452093449128686
H              2.3403530387206146              1.8344574026771494              2.8122611887803046
H              2.2524840645658646              3.9044185572578582              0.336931918735375
H              1.725132456691007              4.180310884394696              0.7700546680973079
