72

H              2.2472767095421875              1.5968344336097235              0.8951812505325818
H              1.6826729371760438              1.7641843653677227              1.3147485099934295
H              -0.04503961911049588              -1.1068535825571855              -1.8355681781878246
H              -0.8310048494390034              -1.120999075872913              -1.6912121448799793
H              4.80945633263191              1.9212388979474362              1.1025741843169774
H              5.065373857867237              2.6058361076216627              0.9578911908182185
H              4.223385047152658              4.9113336015182725              2.608875732543326
H              4.202830352183781              4.680018003980917              3.336507827275759
H              2.2612643381400654              2.1491361401523017              3.826382811482411
H              2.8630180813190638              2.1139697865372074              3.344001335401056
H              2.9274445604942563              4.322728391661126              0.36047749698476983
H              2.927073952864244              3.606305530335028              0.5992119568464664
H              2.2756331381799164              1.9872260725450468              1.2872432139906542
H              1.8020520572989813              2.0118411596164694              0.7517775882144341
H              -0.07300508329027418              -0.9980892252999924              -1.777509645462397
H              -0.7907843710895701              -1.0682326915015021              -1.7604954634146714
H              4.568837613432342              2.1062274135379333              1.2556162460115854
H              4.954236306566514              2.752175335203519              1.231140166738959
H              4.156748160656381              4.979352989311452              2.3656340732773367
H              4.342903699631924              4.818301751920751              3.0750098491738607
H              2.514903203751709              2.37021744908015              3.796556537006298
H              3.1052517837746416              2.3186590788567143              3.337990577900418
H              2.918130786531061              4.38983232390654              0.4506596250308342
H              3.0168357209010788              3.690203531525786              0.683583077735743
H              2.4369157690756236              1.5174205183717513              1.0902763854559498
H              1.8431497918855724              1.8054189119956163              0.7349177446219991
H              -0.031232247967592074              -0.891097568529667              -2.0663568278840527
H              -0.6953178680408052              -1.356816007196969              -1.859521276940538
H              4.586036301642393              2.0142765848462725              1.08388213492808
H              4.890148587483456              2.7537157037689055              1.276555115423947
H              3.797580348697354              5.0551742354317675              2.4585910786747696
H              4.212044808980819              4.668820396752204              2.9351286141336517
H              2.7994812720802327              2.419057871066094              3.5707624796779807
H              3.0599974210750474              1.8566705746733532              3.1560451631588036
H              2.8838047293132205              4.304650927353356              0.14987069890380125
H              2.7295612787750865              3.721170947153068              0.5834902788626961
H              2.3118235813570402              1.5751267058555805              1.0345221248876062
H              1.9582455678628927              2.1947515616742455              0.775050814071413
H              0.279718740974453              -1.1909074162187772              -1.9492348861328896
H              -0.4268630596278168              -1.6108632449242868              -2.110907395981658
H              4.995325634606285              2.128161902733994              1.3126651404235583
H              5.260602586534633              2.7208411996527198              1.2848883947222025
H              3.9686167785043316              4.875719567781767              2.5409863371201964
H              4.274134640442699              4.448977117831954              3.006717868220025
H              2.5125046866135667              2.2346534714779542              3.6019857275491556
H              2.9624939413517466              1.8433755011908248              3.3323973243102785
H              2.796504136101788              4.553914155163554              0.23281624684849136
H              2.8340633642062687              3.7207103403691955              0.42724050610487796
H              2.1525388241333983              1.3236688449424538              1.082242485932021
H              2.0119113583864507              1.993910522839081              0.9242558196140586
H              -0.01657287886676699              -1.2807909086491964              -1.682924241329593
H              -0.5415008658527866              -1.470264938764672              -2.0531858185311482
H              5.062415911565084              2.148401308357432              1.1748521759969839
H              5.034071912231997              2.852241224841943              1.3705400159457206
H              4.367553566724575              4.603304955541014              2.5377264772425043
H              4.4404160832651565              4.631640098531912              3.246514525792994
H              2.4291730453535445              2.4357438577861643              3.5264601202481054
H              2.953837909059837              1.9565675217603544              3.7435376234995075
H              2.686900032781097              4.47771562166173              0.24172960157970644
H              2.8588141002509015              3.7865950970495157              0.20643016628900418
H              2.4096472168032643              1.5901204888544096              1.0905611107776376
H              1.6751740535677084              1.8056337175560273              1.2459446549870348
H              -0.25254012003024784              -1.3295919463008774              -1.8903700963790844
H              -0.9314626571568081              -1.1681614997844458              -1.8708019497623318
H              4.771199360707443              2.3114423425084696              0.7620093979248673
H              5.1393161151545375              2.586311405668579              1.3263164627665396
H              4.391347439043499              4.865830466143252              2.5077909668288805
H              4.380808521851078              4.776974175112258              3.286049509415769
H              2.4255709968178625              1.7348163445300908              3.8224072555576876
H              2.9401468397109647              1.9663253082762011              3.4447814369295404
H              2.804041247622761              4.465297364548355              0.2694312384997586
H              2.8366525723610865              3.8267957986534173              0.5800648519229588
