72

H              2.2957360580104087              1.2811204728525591              0.9821344888079189
H              1.9862627406964073              1.9123776974129647              1.0243580313544247
H              0.6121361481988679              -0.9817993772606218              -1.7252211965511843
H              0.2190083602396915              -0.417331050591128              -1.7828877486167294
H              4.620094543339327              2.3397473305243373              1.1479305197846685
H              5.03035351526732              1.8180373449928422              1.5775284703163706
H              3.784196366806403              4.677160770920341              3.165314692501083
H              4.475515737649378              4.704211325523996              3.107646536054787
H              3.1463415567836863              1.5920572020933232              3.151012777200482
H              2.9423672888053622              1.8204125588053883              3.773293789430361
H              2.869618611869728              4.033562873230104              0.6586445087819236
H              2.972019252258613              4.375941427592129              0.019214481208624987
H              2.6590082776385238              1.5435481441695682              1.0755745215307504
H              1.9886525961449193              1.4894964506820845              0.8910011761261647
H              0.9660172285362835              -0.7059089329946459              -1.8874518988555657
H              0.2541016484501533              -0.47409566853273066              -1.6739527006869472
H              4.924100126398496              2.369945785075367              0.902866149892473
H              4.906773908058968              1.910839360094449              1.441241718789143
H              3.8052006517503              4.712729473899626              3.051317941230282
H              4.42625475299731              4.951385725555005              2.8949522360932067
H              3.216173166465488              1.9547519306478145              2.844203738755708
H              2.9320111500644668              2.053220505665895              3.5873783276685205
H              2.591002688851209              4.058176477462206              0.6161122437679669
H              2.9079602094494317              4.494773617521881              0.12550646356001818
H              2.3421677563149776              1.8754312184673565              1.0414246824429527
H              1.9276847465379825              1.7057422492580474              0.47331315976059274
H              0.8557367441594363              -0.8929737877283384              -2.038001253682369
H              0.47528239471554956              -0.2966906573685956              -1.7841545434083914
H              4.976826615530885              2.530009992970112              1.0299540672474128
H              4.95565716703847              1.824996935689846              1.0780358360324882
H              3.6006880688225356              4.936586580393737              3.003868626799554
H              4.379264625451476              4.753117112288085              2.836912166642461
H              3.373544267279758              1.72159708843107              3.048733688703982
H              3.1338757613443615              2.04497563684673              3.709208454772361
H              2.622544057134355              3.943910471826976              0.6208327567967942
H              2.703850473857524              4.568994162033454              0.21570680816827625
H              2.653334066157703              1.5014493996897795              0.5990069409540346
H              1.945310970022927              1.757667876911499              0.6759375969531748
H              1.0010944640194275              -0.9420880356885917              -2.193308562579943
H              0.8049404829923952              -0.4281563954150004              -1.931907625139552
H              4.79061057899078              2.523817099566132              1.1258932918046922
H              4.7064247224901585              2.0532100941670217              1.6189384659786765
H              3.7397135629406355              4.816529230660926              2.9011697200729003
H              4.377290105244551              4.450150211345723              3.029883245308859
H              3.2799774654266676              1.264018474258412              3.647843603460132
H              3.034856218410143              1.966176256084665              3.498939616342082
H              3.019895553577851              3.7791371336700745              0.4616768839524074
H              2.5927512788160882              4.236051079066629              0.05625792855447092
H              2.334353869810139              1.7024669673296584              1.1675639561845672
H              1.7976175944611696              1.514574715497418              0.7422178587990678
H              0.9933210068098737              -1.003615968268614              -1.7446902450388262
H              0.8960231373508906              -0.1759932062891826              -1.8836079571339077
H              5.0744411645474425              2.742393383808597              1.3092460611289678
H              4.849223498143833              1.9811918998930769              1.2475521909358231
H              4.093716390209294              4.600900795367815              3.156550310320757
H              4.69534014262165              4.490630987274261              2.7950826733679133
H              3.230322953678875              1.2087437709515323              3.455073074943486
H              3.142524389224158              1.9871068947534722              3.7310303814269288
H              3.00951456654663              3.7659529029294387              0.7051197081551644
H              2.727972429514322              4.424278934824429              0.39686800427874724
H              2.26485595131098              1.376942410569662              1.1619147991985708
H              1.816222156901695              1.919759980333512              0.9143942825644391
H              0.7512502607362584              -1.0035905657127462              -1.469509320241865
H              0.535066711015797              -0.25567588110715195              -1.5917211560666304
H              4.695159723951398              2.5593068417643825              0.9154741397089844
H              4.7749443111779195              1.853009740170462              1.03904092174578
H              4.012204639584626              4.298712666596071              3.40361834346513
H              4.529619494944311              4.564643076188367              2.96606931667115
H              3.5497739187597777              1.7537434264859761              3.656643710650543
H              2.7943222593667914              1.9150465671752908              3.5302755308968323
H              2.9323005662725867              3.899844489169553              0.7236247315508034
H              2.9139497040102333              4.336931298210653              0.11917254206169506
