72

H              1.6328412877733625              1.0886498642996674              -0.6459982044423345
H              1.326107884463451              1.2656369318276492              0.02108356431159703
H              -1.7917209992313081              -0.6563521418058746              -2.412575132000198
H              -1.3843688082774868              -0.9120812353256238              -1.9474744821959669
H              4.014685220662693              1.7073282072424927              0.7556027606964169
H              4.452802911398692              2.3423541742835767              0.8187132749248236
H              3.997272571427369              4.443524717350471              3.1042402338189587
H              3.942862774207339              4.215686990991119              2.357096160755885
H              1.586390375561476              2.360574243795291              2.228743667317194
H              1.7920354294945267              1.7821363339996994              2.692818903007574
H              1.7264648243862268              3.707030140569731              0.3632502404394652
H              1.6019978701814657              4.249490874901315              0.9254048707162414
H              1.684705047912314              1.2217290803764467              -0.4772331785076338
H              1.1056620149258942              1.2852458985476687              -0.0692944893933923
H              -1.4856568947126734              -0.7757560211850655              -2.456594868249131
H              -1.1251834199935895              -0.7383420896112249              -1.7664349181704588
H              3.8504868352166954              1.799331727398737              0.44598274606085914
H              4.332494932186866              2.11389288219188              0.9296905503486046
H              4.042621948605827              4.107973152450396              3.34237371368839
H              3.7282456839618967              4.179110703959169              2.639188191643852
H              1.4277303981827092              2.466204839292424              2.4104476849077106
H              1.8295014904461688              1.838153355477826              2.6629228872510864
H              1.7013618162852093              3.774369121876589              0.037036795945655655
H              1.5790819458084484              3.8336807708179714              0.7509631611126735
H              1.8573785412770225              0.9678375455244552              -0.35746973521700465
H              1.227978465563175              1.2241582019410246              -0.06349792965816987
H              -1.3883090609675606              -0.9127283863292037              -2.4261928869157403
H              -1.0108483707346867              -1.0000182068412482              -1.7698760697179858
H              4.202677986903449              1.5711524568134494              0.8445158213811313
H              4.585744085123523              2.2591458836634932              0.9009549289155546
H              4.163043364475293              4.494180085096133              3.13161256274528
H              3.7510879218370614              4.170872523014371              2.606200806781311
H              1.5209909189699216              2.3666424237532873              2.608846018050146
H              1.6544469053532442              1.7557095385744246              3.0194878431877434
H              2.0199768448655044              3.6851730876479682              0.18552246839217237
H              1.5326399333048273              4.003079948590157              0.6827052814573273
H              1.778503776300071              0.9571616640834791              -0.4049820488114843
H              1.0482064266150997              1.1781232756047364              -0.262008947718571
H              -1.6785499559993604              -0.9428132327532892              -2.513709278074846
H              -1.2860323377928196              -1.1097539960208969              -1.9754011394621271
H              4.2643657104541335              1.525642282100409              0.6976964993435266
H              4.4445665907235945              2.264412263704911              0.6866753107924489
H              3.776028086815923              4.71763599674264              3.0188332496342465
H              3.7371793639567916              4.132262971406909              2.600083064658976
H              1.3994493135794384              2.4054211460299              2.7202073753008094
H              1.5671775451091083              1.790451330938391              3.228893995731363
H              2.076375312761978              3.763934253578657              0.4176916087895747
H              1.3575172295424354              4.036479648896688              0.5292886910510025
H              1.3303523838133446              1.3447476746991185              -0.6036161201962327
H              1.4265669868186874              0.9282195354518414              -0.0050913991018958615
H              -1.8120648014133958              -0.8184431323257984              -2.497680821191117
H              -1.3313116995770884              -1.3170055164990166              -2.0528377437711165
H              3.6329922726324786              1.7378342436141208              0.9237100893567447
H              4.297964712110319              2.1799791467163545              0.9698577978589595
H              3.8085351500892575              4.344392983637652              3.1004467068720225
H              3.978864168314831              4.3242513027696114              2.4104198012566846
H              1.3665080362428166              2.0308400643608544              2.4710327748688727
H              1.8294990193207101              2.0811083044941423              3.08178120661263
H              1.8518901865247024              3.9189841504847887              0.6686847852265885
H              1.2905488083825152              4.211374606248965              0.9348267397901747
H              1.5238814724009548              0.997101655312979              -0.623796246220047
H              1.4005876707449751              1.5136459027803322              -0.18895665264334005
H              -1.774522897667155              -0.6052304883048568              -2.278704254968845
H              -1.24574919710995              -1.1674408750228509              -1.8420231475980577
H              3.786483941727914              1.751387843217871              0.8906370660413383
H              4.009855745101073              2.4124477806109197              1.2698690782437625
H              4.098491162279178              4.3789864960649005              2.9928916011961757
H              3.8834845614144986              4.200402349929629              2.31676873413394
H              1.4590313962255426              2.397129166158372              2.6909783900120283
H              1.5950669521546414              1.605225861904534              2.7357508292287984
H              1.7055714806323576              3.732179060242333              0.5452068957123147
H              1.4497326886688906              4.0058157579197875              1.2069209927599753
