72

H              2.347284155188907              1.254517432621417              0.9873402791020968
H              1.9224305498449121              1.921672143304143              1.0458402810378975
H              0.5651466823786007              -0.9544317337966657              -1.7127257753352456
H              0.2042007901770907              -0.31877235731303033              -1.7902913891257544
H              4.629533458683564              2.3488898896331274              1.142471793941692
H              4.9786069645763735              1.8019663367389749              1.5674497889334031
H              3.7604433727102826              4.641443287884211              3.1670813671249056
H              4.497009618463572              4.696797812737131              3.0935880333879653
H              3.2653024361115155              1.586110524438511              3.0798664332000465
H              2.970386850413772              1.8298332435330125              3.7389682441438827
H              2.782698147748091              3.966583669686852              0.587194162876729
H              2.954378841917922              4.457327370400512              0.02936831401701504
H              2.6082917921484383              1.5414048080856708              1.1072383664646908
H              1.9665617243506477              1.5586134544114034              0.8550504710395035
H              0.9679281205819157              -0.6915343134761687              -1.902505545840329
H              0.3168537454825784              -0.4058872277767619              -1.6789913261160023
H              4.9101097490423165              2.3648283355570516              0.9265603334569755
H              4.899292302812785              1.8650124920916846              1.3739658018528447
H              3.727728362347066              4.726454334078696              3.075542021915347
H              4.460567193394429              4.939159519851301              2.8615970683911423
H              3.2461115667954448              1.8321611060149738              2.8976800985035007
H              2.959018717282389              1.9572667642420614              3.5460793244682267
H              2.6009428814259676              4.0848879761371855              0.6489591926564023
H              2.9161477973396925              4.52777546187758              0.10697974864071506
H              2.30095820423671              1.8836223774891152              1.0336430877361675
H              1.83385828879141              1.6615943405907503              0.4764512433890343
H              0.9202222759277954              -0.8526983380282289              -1.986367785698275
H              0.5483217413913047              -0.2980327056143877              -1.770668533217483
H              5.065677984668411              2.509346218335058              1.0969434160551714
H              4.952129798081126              1.7895477324535736              1.1253348497414628
H              3.6848939246512225              4.99959034037776              3.0614137479267582
H              4.357349683835447              4.722536308415321              2.82905627337025
H              3.381749817202718              1.6746120820986075              3.1183157877250585
H              3.112789951131229              2.0795721022470732              3.6509445249775454
H              2.6881995133273993              3.983802996174747              0.6009720620681241
H              2.732315374946412              4.604648658853212              0.21869231932338432
H              2.624295228790987              1.5098447902362846              0.6300156227757129
H              1.9384560200152057              1.7641110551678114              0.6541565141830995
H              1.0183080136486315              -1.027403134064965              -2.2255501879575026
H              0.7224132880484988              -0.36539400947184564              -1.903149903190209
H              4.8411207869399115              2.532807645398005              1.111338471790451
H              4.7540549425135845              2.1388031652247124              1.6630063914786182
H              3.7871248227484              4.855451709943392              2.8636488779092595
H              4.40565383745967              4.499479324499371              3.0579636564429116
H              3.3364151414731307              1.3221753042984354              3.617122534077127
H              3.00951200492657              1.9298325442422688              3.477864971959407
H              3.080632852103503              3.7824539350517994              0.405315007291604
H              2.650114204232337              4.254608384438912              0.12950054740159986
H              2.380346737519684              1.6296126440298389              1.1650086468703151
H              1.8157748984551751              1.4906363029903127              0.6961887447393035
H              0.9492198421840587              -0.9929158303532722              -1.7969987819787951
H              0.8525071803036789              -0.22332948616024925              -1.914224513237636
H              5.071838851587934              2.730933666801538              1.3226540705722067
H              4.886626467863879              2.0229008112783045              1.1870404705270923
H              4.044066458294797              4.618174133924453              3.169974709325333
H              4.673812455297736              4.461268023296755              2.806089059841775
H              3.1307882318161324              1.224700701396605              3.474968465570078
H              3.1582592110976515              1.9061365527595702              3.710382677052951
H              3.0254121644373124              3.785889326478512              0.7249354929019042
H              2.688129800797225              4.330020604449268              0.4187517213747366
H              2.3034786157719194              1.4003220353073331              1.1346544855809655
H              1.8573844702635887              1.9504283952043802              0.9618448237021152
H              0.7588331593504517              -0.9635752715870275              -1.449860236594599
H              0.5505948934810583              -0.3165946560278325              -1.6239187750006618
H              4.732214121728219              2.563491232479116              0.9474287879992426
H              4.832571324087814              1.8434232464303704              1.0501717897536957
H              4.055967964251707              4.237306315833407              3.4015383624288553
H              4.519727815953296              4.553924218934765              2.9076529972538494
H              3.448675739947267              1.7275652790408005              3.6474297200851202
H              2.8540040240626414              1.968699656180139              3.547591917710461
H              2.8794998905169265              3.955316420536084              0.7614133518489772
H              2.8809469040027578              4.298219696458797              0.1422869024033482
