72

H              1.4778781383115644              1.665997495021757              0.053115371820377524
H              1.4772840406133876              1.1179491979515461              0.5667472199688545
H              -1.2679228923775427              -0.11901259948651394              -2.0494106680791164
H              -0.4978317251457483              -0.13434345039140427              -2.285053754813012
H              4.026375628522624              1.8393224955083665              0.6124823250011947
H              4.356254398469997              2.5176869797709807              0.6617528333779235
H              3.813378488882985              3.9549847826458353              2.587749210692387
H              4.066243159495543              4.531996529253595              2.924840691224458
H              1.8808775585940218              1.7995340342052848              2.597417166406823
H              2.5844232200577735              1.7033222415174336              2.753344833153675
H              1.9773282286179146              4.153402508277035              0.3308852724876866
H              2.048503132319771              4.306878805847616              1.0017421501799593
H              1.5836767208882627              1.1387023564396144              0.1848088880524036
H              1.3981128385056638              1.198337545689854              0.8994193926274697
H              -1.2427838222546175              -0.021583136556835573              -2.1166614814658598
H              -0.5571304910516287              -0.23876196798896704              -2.1017222849947195
H              4.54803178727679              1.7289736472624817              0.45796200497819217
H              4.655860803224882              2.440652715427994              0.695620344396348
H              3.84487181559791              3.89496744807169              3.014780587149693
H              3.8789763833339257              4.585927281667409              2.822433200794838
H              2.2568035099348402              2.1414040940893764              2.309863446875964
H              2.2984398564504365              1.6880259489307308              2.9506092615168202
H              2.2664039839769226              3.8589330925875873              0.22094539782562886
H              2.089567012310306              4.242107154502522              0.8543006987822752
H              1.476045886111549              1.8697401610574473              0.22455614609984353
H              1.3729479214291085              1.1527677658908482              0.391450493393638
H              -1.2796391126305382              -0.3318146876587828              -2.3710208458737463
H              -0.6275863564599904              -0.24213228860290403              -1.9899757360313957
H              4.467222513052416              1.6852198569512327              0.5726284604117388
H              4.906195066265707              2.232716838568147              0.22843839265163968
H              3.5332093647507916              3.954156907917195              3.0549236282564336
H              3.9717629465604056              4.499466668749202              2.901916277837638
H              2.2533762659644747              1.846532368231896              2.5438927271911345
H              2.0472297470223557              1.9839305553760826              3.1896224003897506
H              2.3800486147741617              4.0080338268490046              0.20044013888640058
H              1.8098803467226372              3.998670800845798              0.6668387448794251
H              1.7031687473961943              1.7031566133936253              0.18893041933951737
H              1.1775060985552335              1.1967013492525467              0.3358217178683288
H              -1.4215927451631187              -0.357337291974168              -2.3357688913085792
H              -0.6894672303204052              -0.4321427771267029              -1.9172426785295729
H              3.988698774968029              1.72534082918648              0.8121823857882028
H              4.494272480084113              2.2028541870509093              0.7319705733476134
H              3.503980893398955              4.052765646790565              3.018056225346665
H              3.990691841821511              4.5606488347451              2.7782756253556857
H              2.031459507246794              1.7859017173002436              2.7322008076645368
H              2.3459860310297294              1.8957619239570405              3.398028087394225
H              2.318050372024638              4.106264992140642              0.45904502801347313
H              1.6997708567184941              3.954481561874281              0.8293195384525175
H              1.4272559135296858              1.7840399100693205              -0.15655961459443293
H              1.1840145588210784              1.3169170583516399              0.4573120385489726
H              -1.6272342124068604              -0.451390680275536              -2.3165733407635614
H              -0.9559280503087366              -0.4340191135460726              -2.2440360652598885
H              4.545609783114461              1.673157713514691              0.8268694838001592
H              4.481692676126463              2.465365663465037              0.791253950994468
H              3.324322000394415              4.477423514449712              2.782739304222876
H              3.9841264917522508              4.509828214676146              2.378338919030161
H              1.8728843600079355              1.5601503221147386              2.765928553896111
H              2.2543724021405005              2.022110865678243              3.1785989026679116
H              2.4062752075445086              4.063130047835147              0.6309725143202694
H              1.6905972546329153              4.258668983783144              0.9165796916951594
H              1.4937800465044015              1.8076930631243902              0.010151806137527109
H              1.2968997618607097              1.110644982084578              0.09140841196818082
H              -1.6216148102055998              -0.16047562968113074              -2.3905597639884126
H              -0.9826721920760864              -0.32385906325828145              -2.5475334134713576
H              4.081814642085              1.759338797398958              0.7196449803247246
H              4.3641968334000945              2.4960601571538383              0.6824380462269012
H              3.4036572935618343              4.167764877358073              2.749972472452433
H              3.9395105334759917              4.643840547644293              2.6837482179963095
H              2.032557649396789              1.7077035635980102              2.3050217361066263
H              2.3942393628466725              2.0041983130570795              3.050860394614939
H              2.1268604343439397              3.9530960235233112              0.43824748850746514
H              1.723699679247947              4.317413887404584              0.9528605396246299
