72

H              1.7461746993125962              1.96974214497582              0.1716914042855423
H              1.3506303005968336              1.474883869277748              0.5547921792504967
H              -1.2586212419286233              -0.29391935857572765              -2.2303713080696577
H              -0.4711798758038898              -0.23715514952356434              -2.1778478342063172
H              4.278371852217524              1.8152563193564473              1.0302014545420923
H              4.701048177641114              2.30365492325354              0.6355061426673309
H              3.5260375665737493              4.1389863966954366              2.814982204409596
H              4.006642854726121              4.587065655708409              3.1756084845416046
H              2.205175255367961              1.4522064683958211              3.020984889705121
H              2.6972591519540945              1.9010761477655154              3.500940570201453
H              2.533637686763515              4.392347192982123              0.32235580952669884
H              2.1631132351383653              3.9779147610352346              0.7886956985074841
H              1.647259839444174              2.0476406569609886              0.14029969882690593
H              1.5630766666712625              1.2939047708915397              0.4222516359946195
H              -1.288436480370875              -0.2587571815174716              -2.1408056794690373
H              -0.6116113432398453              -0.01266208663997567              -2.3437934925267707
H              4.647366026010079              1.8422145822675213              0.7451083859882015
H              4.293545655527264              2.4979785414232563              0.5921016150767032
H              3.4654015167852994              4.416525808229066              2.4539919871808036
H              4.009495846002415              4.677540455024986              2.87810137383992
H              2.1676898057905496              1.3868987626406564              3.206458191749071
H              2.681662931741151              1.8550558594032867              3.407011260511702
H              2.577443283162309              4.1581128627590065              0.4230205417162859
H              2.005675677001309              4.216845722454429              0.8985147254109884
H              1.5850393051177023              1.9469742864714474              0.18661126707961978
H              1.3769513360012333              1.2716838102105799              0.40091272650577653
H              -1.417329464360139              0.008366038763476382              -2.269699545094057
H              -0.7017407016121038              -0.09868484202476292              -2.5403020609458644
H              4.418399834623052              1.8288041854411237              0.6731241379585201
H              4.4058168846960735              2.566269977208106              0.43273130757964773
H              3.440832632618704              4.394777922102514              2.623004372156352
H              4.102190121171762              4.660586932893404              2.9168121462281493
H              2.2790986633404846              1.5950215574728102              2.81657427165542
H              2.911504163557316              1.703469446827453              3.1442667720351585
H              2.530682024062279              4.407216229704812              0.34342160349714423
H              1.9715433032816119              4.5697082602139085              0.8565941082745472
H              1.740536803017371              1.6883491442371885              0.18473286188889193
H              1.5834022606209357              1.1375953562011443              0.738095979226539
H              -0.9527679450309917              0.011833856913095013              -1.973350303116846
H              -0.35806587114824995              0.09713344638607319              -2.5456271728514097
H              4.214125826193773              1.899602686323577              0.6581879295343424
H              4.338868370411662              2.5803667987901777              0.7282167713028341
H              3.8344937917052775              4.061017499024299              2.61442352951673
H              3.891621478074868              4.491978070737887              3.2305117906436824
H              2.2122176902185333              1.4503747405787089              2.7546473343495506
H              2.769493913197258              1.808681453373182              2.99184041839401
H              2.3180251864102748              4.363678596499126              0.2000489322239172
H              2.366765291476652              4.172176527682187              0.891769167448066
H              1.5676639233277256              1.7058806975736134              0.3675690947650796
H              1.5924142651458917              1.239475871293589              1.0187858847608764
H              -0.8443445017125887              0.10559249355990231              -1.9602601006274354
H              -0.2235799899205092              0.12537588268665806              -2.2187089761743475
H              4.805247786383372              1.8181601939409981              0.5975000418706701
H              4.637249567938623              2.5959833730969066              0.383378477005976
H              4.049083626507174              4.151084088613826              2.5071720143473732
H              4.001156444255683              4.496743214263681              3.2439566722897806
H              2.561430354207061              1.3038451258496286              2.7738281563941567
H              2.687834757566953              1.946355961837579              3.1645879583511056
H              2.624941006743651              4.098600950386689              0.2766117682802714
H              2.3563212410908916              4.457096904389761              0.8732310952557352
H              1.6647972050941653              1.9435859520522256              0.277267558644848
H              1.4651954297523075              1.4462986972070493              0.7721263656416404
H              -1.055725337132219              -0.03497208756413305              -2.199892189124316
H              -0.43809393307892486              -0.010618480526052179              -1.9103743836347344
H              4.422362649716489              1.7603681453688522              0.49629227088752126
H              4.705649939649234              2.4430305784500184              0.17410645588116117
H              3.5993793626053656              3.970379590568162              3.0190837652925278
H              4.006528538671146              4.541604594353898              3.192841828701987
H              2.42430043014073              1.649707246442835              2.811063729601738
H              2.724732696718668              1.9736005511437336              3.4128432182064192
H              2.7061749600722176              4.241372323321497              0.16242556926087426
H              2.1613907499740224              4.003910010180822              0.6220395899111097
