72

H              1.7020767912594468              1.8575332716198167              0.13438176046145547
H              1.2546561569822947              1.4607024191670084              0.6246208465480405
H              -1.3995244131869253              -0.243869229243419              -2.2489894093936798
H              -0.7173434905181147              -0.2335717646455841              -2.1612651927231648
H              4.381239731955042              1.7359985832268663              0.9670904609637663
H              4.677632316676385              2.2894987076372657              0.6577672239268603
H              3.4339498785429234              4.084345052884713              2.874171798184571
H              3.900430169530986              4.550164452718424              3.0853485770519127
H              2.216584073397824              1.5818201479982226              2.8830504107354926
H              2.5374105138310843              1.824963249604993              3.515325179078236
H              2.5334618911127125              4.232854088959855              0.3025821941555624
H              2.0588190427521926              4.029941624672715              0.8067084692719894
H              1.488131466072893              2.058208988042162              0.20921205285286168
H              1.53800643906878              1.3869351384487976              0.24770014938673776
H              -1.2953936776573909              -0.308907716861629              -2.202125087939013
H              -0.6374707009379147              0.07680283509470212              -2.3436464357197635
H              4.478845829502923              1.8910608440366226              0.9119120157499114
H              4.266935182281978              2.394149851594236              0.37462706820546704
H              3.4462067719338103              4.488087632227525              2.3758465797659163
H              3.9470231954734465              4.559645422794659              2.8905846749918185
H              2.0555642561655803              1.3966462039317888              3.1698122171535283
H              2.7137912632754264              1.7582253257937004              3.411775926952455
H              2.5057668537547535              4.166414611020296              0.4130629942746325
H              1.9974426912753203              4.291998102184782              0.9157329656620359
H              1.6620674336822372              1.7749667907686255              0.1515543554446062
H              1.187706189026813              1.2410373417648817              0.5149145111761589
H              -1.3932269573113518              -0.004422780191293824              -2.2926445036605667
H              -0.6048158550856835              -0.09173224335151285              -2.4738241811795656
H              4.290364097255675              1.8695395901057377              0.6928635860665768
H              4.3090152494772225              2.5801405591752364              0.645698797822846
H              3.4308289235496363              4.347071786612577              2.7009798113420134
H              4.024699872810347              4.785214647616799              2.806188387422141
H              2.2561128752301856              1.7948478856030425              2.732464893438356
H              2.93100629069783              1.66502523736583              3.0347614546025423
H              2.5507475004430713              4.329345626861137              0.35842227157565076
H              2.0362603092968428              4.542432638874351              0.8764735687926566
H              1.6142884963306388              1.7380600572784186              0.14862842820414002
H              1.5418885817944123              1.1729865205626473              0.6400873040062348
H              -0.955680072039489              -0.07456730632305367              -2.195942027558504
H              -0.442832662760435              -0.0152905326190857              -2.5914137879760006
H              4.496092366142085              1.8825974276012973              0.6577489906537782
H              4.511818928590616              2.6381659629071597              0.7107085804011043
H              3.68452593390325              4.048253972298323              2.70085623844763
H              3.9319869079737084              4.661039997933084              3.0732825198310207
H              2.257779262515449              1.3837031481830593              2.5507666054933362
H              2.5778999150154007              2.1061182798215925              2.8952245348408083
H              2.4943530319200757              4.257061750767163              0.17036805001560362
H              2.2256958698826406              4.149631122137947              0.8798099802184959
H              1.5858317993306472              1.7086042638531196              0.42948220102022683
H              1.7007270020543366              1.0696593631228346              0.7609903911261896
H              -0.9171687619342987              0.11519965440741362              -1.9531160712064544
H              -0.17381369310796355              0.01834382604197976              -2.269808667755886
H              4.536532957403396              1.8312186432554183              0.4765474724752082
H              4.6694070647541785              2.5200438379858316              0.3838648823957284
H              4.080124819640211              4.061443884598117              2.636716403644835
H              4.022408397926596              4.462838511361129              3.218807851276985
H              2.5254513432335552              1.4037053624503375              2.750362990175352
H              2.607010875378161              1.9394583542803046              3.1588169865668836
H              2.4618202851824225              4.145961102943675              0.2461036300377771
H              2.223923915705031              4.227578776358849              0.9479666192859703
H              1.5920049097024702              1.8266468945033694              0.28819741817465855
H              1.4859054652688486              1.4463068228824607              0.9108736961142294
H              -1.177101832204124              -0.04497371117958276              -2.025268498989137
H              -0.42019228783328816              -0.11354664177495832              -1.8051186976135158
H              4.462916251309083              1.7146510515721123              0.3979487637853336
H              4.7072076617834435              2.382799934987475              0.30514981304757377
H              3.6727539263982205              3.9130417474497095              2.9115722201542917
H              4.126688417056878              4.48486720490802              3.13748460355811
H              2.2408210700665543              1.5642103004853432              2.9311880638131265
H              2.7629857374435614              1.9143680886351484              3.3943953243209064
H              2.5804251898906156              4.314901556485343              0.23559485329129562
H              2.125877920497371              4.099510881562104              0.7820637072580944
