72

H              1.9301909523205263              1.2497101806098005              -0.32926463725246763
H              1.3071829706896327              1.2612537327606625              0.07672468868464452
H              -1.6011681704527876              -0.7807279931570791              -2.3334292259990463
H              -1.1879537517596261              -0.7542938490050134              -1.6491190999831276
H              3.6975321670071737              1.7158530130383391              0.7947526256329915
H              4.354263318677086              2.0600435407132647              0.9890607946052175
H              3.6630163568240004              4.158445501429268              3.147835362450254
H              3.9336357966797073              4.21085025788524              2.494203317198624
H              1.5378303057499754              2.0558789561821933              2.639372401345208
H              1.7541288867084648              1.7196826069655742              3.259617178574215
H              1.8885000410846355              3.9258467807329724              0.39544298860331323
H              1.3535152569359798              4.012974421774632              0.8370526873419972
H              1.902320616389122              0.9149983340178767              -0.333091660329204
H              1.3637376272249797              1.2007403347118828              0.05719714743579387
H              -1.886969112639197              -0.7138787293360327              -2.531544412096231
H              -1.3403148724671403              -0.832270723112995              -2.054781279988641
H              4.034791393657949              1.6356747333587867              1.0529164381690463
H              4.462266663259059              2.2545489289131737              0.9028917830690779
H              3.5971904878875502              4.7181656961890415              2.9332405532657986
H              3.8369574675599454              4.380608921458069              2.3499872639522263
H              1.5939492572069265              2.0380061265898997              2.3825424401268758
H              1.8961088778349902              1.842206290351077              3.101284148310392
H              1.9894171875294546              3.7239524281517777              0.578620577389775
H              1.4602088409997835              4.258548061997985              0.7789709180784339
H              1.8188446598306656              1.2422782022622088              -0.45826963583394237
H              1.1229498076045394              1.236900979463023              -0.26199692202588465
H              -1.816175029122039              -0.6164385014919578              -2.6197611876433373
H              -1.1461246344231795              -0.6878025563681961              -2.3331198082826505
H              3.9128076242103225              1.7420574127340003              0.655576846467368
H              4.366049497062001              2.3612028236196565              0.7331651494256497
H              3.586578241296667              4.460001453797015              3.1051648625537913
H              3.8126017201985984              4.546035314067023              2.4305475934656506
H              1.4689350344371723              2.077075750872053              2.2936332915172684
H              2.07516916161955              2.1079287653579493              2.780254273367407
H              1.7849117499497884              3.7245753143676175              0.3009870243218307
H              1.513378712604057              4.142279182378444              0.8089924147202104
H              1.7474256851879493              1.2570030738563838              -0.5880390783140199
H              1.34379609576076              1.2761370717103218              -0.024750874456657544
H              -1.4787379077013172              -0.40679639142873236              -2.3389465915975585
H              -0.7255454694683305              -0.833214539126946              -2.2142528782739674
H              3.9471590873284312              1.8360791123527962              0.6525011458657316
H              4.270185580941426              2.444521594056              1.0377525460157988
H              4.075328745656589              4.055782399300957              3.1224273219352865
H              3.984818239015029              4.571900931074681              2.6039225065377725
H              1.6362343157090273              2.175214644013626              2.3061602828975385
H              2.1235738683880627              1.9631521074331997              2.8099721477044333
H              1.6955339856544407              3.7038423139819567              0.3032681941369539
H              1.7421166385004216              4.05339783366698              0.9509824984369395
H              1.521451448261078              1.3595290308580636              -0.6807123104219699
H              1.6369578916392227              1.3079738589078362              0.09888456894934411
H              -1.3695790351363462              -0.4603243864197244              -2.1517230572077617
H              -0.7964500253350575              -0.7624622070015121              -1.8912980743031849
H              4.5942027838590045              1.759834303051978              0.5017850973907996
H              4.35329964473123              2.4455210989902683              0.769787598636947
H              4.178382462791762              4.189069858510539              3.181583835866741
H              3.891561117831801              4.206605429858066              2.484895477323264
H              1.8061167769442756              2.393364168432247              2.626563522948927
H              1.6548415957816491              1.6832802238498452              2.9418483857019884
H              1.9479919351208403              3.7154817810279384              0.18252733984750105
H              1.6400807660642274              3.9457340020217377              0.8823926144466836
H              1.7598808670197343              1.5223618108694124              -0.40823044888276466
H              1.4549258428824174              1.0144559428648277              0.06197054845928478
H              -1.5263307880149508              -0.5577794735641264              -2.336098604549422
H              -1.2070874869405612              -0.856112142055368              -1.8123547206468251
H              4.051570648185662              1.6747857411539326              0.5274858355859294
H              4.623764999596966              2.1437161682664825              0.6824167968128367
H              3.805636538442328              4.026020436175132              3.2903507828221383
H              4.015689776652012              4.207106963834805              2.602484074327797
H              2.010108122768909              2.1587962574022783              2.454114603074007
H              1.5757657614791465              1.8669263032536507              3.1535553749681156
H              1.9505952369485828              3.8716374471263393              0.2834354357955269
H              1.397455496500787              4.144675052053394              0.712944340630648
