72

H              1.0960222140129063              1.069614541629924              -0.4218570375171118
H              1.4169863520391368              1.1449075941412024              0.17532562953910114
H              -1.618345774537288              -1.3790212647653193              -2.283412863785032
H              -1.9122829062416082              -1.5926962601299373              -1.5081187577322532
H              3.3584545108905557              1.4898406453981075              1.0819640977301446
H              4.044517070714347              1.8808799128453935              0.9550770468565327
H              3.984610486159656              4.566243732144988              2.662754505802176
H              4.008355923144276              3.7984678578918807              2.6111188816589226
H              1.4077001599953918              2.372376863516244              2.4497088552193875
H              1.9827276087458627              1.9186181295291935              2.5674812284391493
H              2.1917901882932256              3.8308168072048816              0.7103722341721582
H              1.5136348924591925              4.146233461615308              0.7751988112898934
H              0.9874706249413818              0.8457871463798454              -0.6515845287844887
H              1.1994415263529812              1.1222285523441273              0.07936774624652734
H              -1.8338107771201186              -1.5018238595872868              -2.571111585798609
H              -1.9717809291610855              -1.6008560370357923              -1.8044817486128277
H              3.885278683287453              1.3487107081363798              0.7517175541773907
H              4.243908855289078              1.8337694639241995              1.295294147650852
H              3.8282700869771418              4.713524813212882              2.5978355759988907
H              3.554409513392515              4.0774906249526826              2.8808463557903985
H              1.0790061001030897              2.30816987596709              2.5879242464287846
H              1.6382427687984904              1.9502860681254144              2.4777857107638783
H              2.2175654029033756              3.983233205804869              0.42227709254667556
H              1.4641584407486936              3.9931941829591047              0.5696991330576906
H              0.6601257326190921              0.6391685640457893              -0.3423715254514419
H              1.270940485962255              0.9155031414639114              -0.08377528206618522
H              -1.7201925976763042              -1.4153800467978765              -2.7906439176008364
H              -1.4890357952668227              -1.5729422235682282              -2.0967478363144276
H              3.8702061194754798              1.2897279181320898              0.972230223801713
H              4.389696451276566              1.9049505186606874              0.907385308829596
H              4.0968822471251425              4.786736259748599              2.7906024808473213
H              3.5098591990512755              4.258596981968689              2.735931000513978
H              1.1364543779042742              2.2675958115824124              2.720193996123006
H              1.8445741822184925              2.0936221989227115              2.444320712265574
H              1.815480262310377              3.834978506989682              0.13336227979566395
H              1.7391398028671081              4.1431029536656085              0.788952618263541
H              0.6994329600313894              0.6514665527809055              -0.4324194784750255
H              1.093959383489561              1.1116072974683906              -0.022350949105940175
H              -1.394830829845422              -1.1188884347301729              -2.461053024744262
H              -1.2625364360333324              -1.6026183003428152              -1.7744669622190326
H              3.883350959796314              1.484865335307214              0.7168979812405327
H              3.9255342765532295              2.201603912289235              0.80096875612016
H              4.3703577603812365              4.500167812744684              2.525618019218277
H              3.8127976720996877              4.192592015669952              2.9580257212124077
H              1.3154615530473663              2.427859254923077              2.920147280870997
H              1.640991141462776              1.8584724561421901              2.667405490496846
H              2.119937515281035              3.9121191366370645              0.28371328457104955
H              1.7179155670189463              4.157454794431897              0.8119140178274165
H              1.2698839147492502              0.7651364850823253              -0.6100126744020041
H              0.968730940656979              0.7263662641281777              0.0376545803032587
H              -1.4789852422846508              -1.2590880178344062              -2.2410066509032043
H              -1.4468646435751806              -1.7800838730538047              -1.7978623424261104
H              4.026606378828561              1.5571715469780145              0.7408100422975862
H              4.3070453570629255              2.1287432859539113              1.185329818961978
H              4.362833573337223              4.248264808061993              2.59282294036428
H              3.8259613610420757              3.95724627276971              3.046400518097954
H              1.1602213183821235              2.3403441917289864              2.7163207886875176
H              1.7087668033598291              1.944643108074884              2.630800363955712
H              2.433825713329292              4.149426670554842              0.6158205085305135
H              1.7371021259058597              4.093470157023736              0.7742846893957985
H              0.8304206700306278              0.756992309231956              -0.3447500229654545
H              1.2259648829257992              1.3003056166983415              -0.04064810406950273
H              -1.5204427378070118              -1.4506477683473473              -2.251489084562751
H              -1.4767441834773976              -1.5207833550678687              -1.5450204239057919
H              3.701971793884671              1.477886553272303              0.825664236555974
H              4.203602423430522              1.9539425945751545              1.0578013218695357
H              4.185855167699959              4.285277446398305              2.687367165897398
H              3.7579875557251494              3.6842505102211156              2.8385738346350577
H              1.364638946326423              2.234449450682172              2.99883241476272
H              1.4347915600287366              2.0557136928678887              2.2711566732420754
H              2.1414153646704706              4.081009551209817              0.477646478619248
H              1.6003227410785525              3.958668955341812              0.9363394939393358
