72

H              2.1928095555198195              1.4665490931116838              1.4508229877241252
H              1.6500129796567993              1.5244945044844431              0.8651823656716975
H              0.4368156401768854              -1.0741516483384197              -1.7960770204003826
H              0.18576800459625925              -0.4619782112037875              -1.4913636859803903
H              4.603033973878543              2.330754059498425              0.6205729070762697
H              5.114842104493987              1.9021083779363386              0.9620910729164525
H              3.751165960690785              4.275859557568092              2.8088941451726837
H              4.24988987171067              4.785641861400638              2.9960086046906507
H              2.7120362320274864              2.4438528739465037              3.4230886305926664
H              3.165620646551297              2.15672874921664              3.949951783259955
H              2.5011918734654146              4.578741701661595              0.6478863346429903
H              3.0658240618666475              4.073339357394628              0.47287564456897396
H              2.2341823694158665              1.6347543283580024              0.8864197937340484
H              1.5989294465396018              1.4001831420277855              0.9947325734529329
H              0.4200843359618355              -0.970761933823817              -1.926778555968371
H              0.05017494850256171              -0.5460138658123274              -1.4899385065859823
H              4.467790033617029              1.9451313373661019              0.6736409770801192
H              4.787783697748586              1.9787511867643612              1.3530048156255308
H              3.470198459016494              4.576666270448973              2.8178887985947823
H              4.123090468607688              4.704189120278233              3.0758888543047838
H              3.166167818038724              2.5903214834236605              3.539255790676591
H              2.9265623613711687              2.033752141049887              3.7988962850685684
H              2.562200213482317              4.282565758444088              0.38061563008078436
H              3.2961116550521843              4.204194351041593              0.10353595308816838
H              2.2569277057449306              1.6091719454981708              1.1890956217519113
H              1.843109772707947              1.518235005080037              0.5574343857450766
H              0.7236009993958397              -1.0943219872448893              -2.167267483668282
H              0.23853552990345298              -0.7002252064835461              -1.690874609907261
H              4.800698999103124              2.1592595464586237              0.894410162100287
H              4.857962295636066              2.158963416896252              1.619690666804929
H              3.6035172696920332              4.804351242074705              2.5448748897010525
H              4.2136651950942055              4.793004171631902              3.009130955306492
H              3.0049381863665046              2.35701413242959              3.4098105284754023
H              2.906892988163283              1.8434577949524285              3.910860081565387
H              2.865573812181204              4.270304782879358              0.6811369042862916
H              3.164315034946804              4.224856304121554              0.016834120553013393
H              2.3605624124821083              1.2748699874587044              0.8525740004145114
H              1.6579426191074738              1.618978652942532              0.7994997667657365
H              0.938091911390339              -1.076467772483641              -1.9112850235319474
H              0.22364346171468727              -0.9860765237352165              -1.6669223893241922
H              4.902551396071396              2.4889284997276024              0.6231191853986726
H              4.93751627764647              2.1577558267991734              1.3481770730135658
H              3.603455923369497              4.533675339906131              2.873695578295847
H              4.3239912253599915              4.666498125546473              2.8591316884693136
H              2.925188928759411              2.4569844610972216              3.400078785412573
H              2.7739598713843217              2.305829615571282              4.139692043343712
H              2.9913669606941062              4.276083033925274              0.7606576947121063
H              2.842760065182667              3.9896405317680927              0.11334894702965775
H              2.444004622820009              1.517283846160245              0.8563415885161885
H              1.6954185107118729              1.5602326717045418              0.7475432782412631
H              0.6305432431534956              -1.3033246391568782              -1.8637826623099882
H              -0.09690544440451393              -1.063809894857696              -1.8464207371005705
H              4.694510785159524              2.5071040634482604              0.7236794221941161
H              5.038783663355605              2.3488049922453738              1.3825324293945307
H              3.715318544531291              4.359120903134028              2.5979212973897052
H              4.2345259616647315              4.629709701362138              3.0122358810393557
H              2.71484814787249              2.4295243254989263              3.754177568698716
H              2.822415438309587              2.0763179723588427              4.37438756822429
H              2.7990205766485876              4.153718957631923              0.7842047024205954
H              3.0823872023426575              3.917110039941036              0.14548346062211018
H              2.476597761773619              1.1219536695711012              1.0939770838970286
H              1.7201493160203953              1.0633144476787617              0.8845624049003162
H              0.485241231338817              -1.1729708597365915              -1.99619319287488
H              -0.014286754269333287              -0.7387180191397881              -1.7365322311346025
H              4.733649161922612              2.3206251867540786              0.649981220311032
H              4.9346416499793735              2.2818352176299714              1.4282869041451376
H              3.8198243502055362              4.23428036692094              2.5982247405573737
H              4.116631288211287              4.688253073559287              3.179038772736389
H              2.7114404427560235              2.250638865705779              3.52960763733574
H              2.7839935297478067              2.122937221785713              4.2160585067475
H              2.5519373744425766              4.162504689965786              0.6380488928803464
H              3.0454207987041424              3.9215615984319716              0.14930080691919143
