72

H              2.167488675874203              1.460306607480806              1.4662029961304532
H              1.66235017559997              1.5231615731784105              0.8671817342165737
H              0.4075880159700898              -1.0566776572521077              -1.7725831668478966
H              0.15818778553222787              -0.4863242234680299              -1.482431622817787
H              4.596879076427645              2.33707533810294              0.5965605297505371
H              5.105860426508617              1.9286742438573299              0.968883940733047
H              3.790310035555113              4.274390542463903              2.8098528740841506
H              4.236573995397341              4.808530729348381              3.000326215105764
H              2.735317264915796              2.4804726695773187              3.444223206092702
H              3.139084183824386              2.1620959516688996              3.927344897934678
H              2.5186786300003394              4.577481711226797              0.6208126986242182
H              3.0739316925986144              4.080463294574602              0.5014270973341306
H              2.2371732821165224              1.623427686416598              0.8821969062528846
H              1.593100208154473              1.4009497185996034              0.9907259500081794
H              0.3977631896147293              -0.9816484173163103              -1.9537782981364769
H              0.016440246624624583              -0.5495615346227889              -1.483273100148157
H              4.454171207958948              1.9479184766877982              0.6588536955383048
H              4.804109254737512              1.977284175183447              1.344445332865724
H              3.45509274878521              4.602362801699262              2.802633141105688
H              4.094298652434955              4.706192189063273              3.0791628616092255
H              3.1205941243230737              2.6093173108647565              3.5383860873492656
H              2.9389114139592367              2.0064131456282013              3.8055760519375696
H              2.567615743946443              4.2826780471733965              0.379621848366213
H              3.2885620767555293              4.181917568077066              0.1247963425180733
H              2.2839566013830805              1.6178339882011499              1.164479202746645
H              1.8500041880405094              1.51203272574386              0.5677367235113263
H              0.7313629407559361              -1.0874469962681446              -2.17581536641299
H              0.24290735669523705              -0.7230242237857314              -1.7004026078756542
H              4.814967371545986              2.1308039984876515              0.9192378675896327
H              4.864337866603928              2.184488406593977              1.6079499085605633
H              3.592279432546146              4.79555063498113              2.5196723885618186
H              4.206792225394632              4.788470030469752              3.0083359675944745
H              2.9712927840625376              2.3882484351310023              3.3944367012826846
H              2.9121365887857475              1.8637358147296854              3.9313072640741367
H              2.8545350800443368              4.271190190033682              0.6784530181987568
H              3.1559168946048097              4.212158774826292              0.022289973022689796
H              2.36890128340585              1.2955865052695432              0.8680791608277596
H              1.6419673489982332              1.5948555438486678              0.7908815580156695
H              0.909083991733573              -1.062871679502287              -1.9075494697518416
H              0.24017652620701335              -0.9833784333343778              -1.6855860438821328
H              4.905958258277297              2.5019365729819083              0.635816728584838
H              4.931334883041856              2.1561452125628264              1.3325068501722805
H              3.589240222520613              4.529871429210377              2.865883836922114
H              4.337837479689              4.671814427105914              2.8455350422913557
H              2.944360582099081              2.455086260203717              3.4103767978903683
H              2.8033846913085134              2.316851486649884              4.1080771220106325
H              2.9629644999382156              4.272870011060215              0.7477972296251676
H              2.84005919331508              4.009330363915652              0.11848594262037832
H              2.436205996998557              1.4989238228236919              0.8602270770761049
H              1.685610995182102              1.5706993607216484              0.7488705228921588
H              0.6550098889632244              -1.3238041475003617              -1.8791535994011606
H              -0.1061522785088279              -1.0507737068924103              -1.8388484546551347
H              4.692210163965618              2.4996011841389367              0.7079348974112536
H              5.034176131738523              2.3424412912576753              1.374361897352681
H              3.704028542007674              4.359381398027454              2.6103715621064927
H              4.2280166581813985              4.6086122910121965              3.0092878615520493
H              2.726681704232064              2.407691570158018              3.755858224946868
H              2.8176417365694824              2.0415588970447573              4.379167935184684
H              2.8118421620352714              4.179705815179947              0.7819178918585785
H              3.071218319315403              3.9077594443749093              0.12780243290913149
H              2.4477872875889766              1.1177285398971404              1.0877938498670054
H              1.69835332454918              1.0758135603399377              0.9045909785129711
H              0.5180571021390243              -1.1985924011889637              -1.9821150097357434
H              -0.030422853169486865              -0.7241373682271548              -1.7250811184861106
H              4.756325826967698              2.307063887573729              0.6536684543556037
H              4.956005689926963              2.278402942083569              1.4608333704274006
H              3.8347146102326843              4.234837804425831              2.6043323187669953
H              4.1355675855296665              4.683081898426459              3.1867903497949315
H              2.690850956833115              2.236235937093643              3.548463420573815
H              2.7756896252638548              2.1315541852388353              4.224339409039461
H              2.566934777310128              4.17774064466187              0.6435532714848985
H              3.064338332640839              3.919680515575788              0.1509576019725073
