72

H              2.2510108515938114              1.4840853498284157              0.7281580307866583
H              1.754678783993193              2.038753975367204              0.9030826300448721
H              0.3119465349599705              -0.42449383499098636              -1.6431021639518089
H              0.1234549131953458              0.1335243103116491              -2.02649608040783
H              5.23193734678168              2.346671946674555              1.4635712827180025
H              4.902779976459564              1.967078400046437              0.9421737988791176
H              4.1079780999825015              4.452257757997496              3.3100628321007814
H              3.9980220630248597              3.9746832518498247              2.730225220387565
H              3.2469089292538684              1.2359759284870802              3.390588288256694
H              3.1988939669056853              1.997267668075132              3.234250686553831
H              3.023570336981355              4.082310430604426              0.5006592874263613
H              2.7403980156532195              4.779388617882044              0.4876041574180407
H              2.121263406714578              1.70867920744857              0.654438981780638
H              1.4491678469053488              1.836742240418756              0.9771269524416989
H              0.4109035228726073              -0.3680951735812722              -1.7972109161730767
H              0.13265402425433728              0.21592651670036467              -2.079415434475243
H              5.66531563957103              2.4546604603709032              1.3437792690196388
H              4.988255532146591              2.0367555238335826              1.2228299638074698
H              4.081660191782806              4.871857605960789              3.038582448870303
H              4.1473893077079165              4.309897629658305              2.623102826615424
H              3.370143223864552              1.2874784120260765              3.059236827169536
H              3.4055629779000745              2.057789479359532              3.168939409100949
H              3.041570100066362              4.277077687357232              0.6307497943531718
H              2.905412129929384              4.981864322461698              0.5602297021835051
H              2.2926038829724544              1.7284322703082655              0.4630517356116968
H              1.5536491231503116              1.7485398742675964              0.6733720651198289
H              0.3821158340358201              -0.5251674929830982              -2.2362134249515355
H              0.31393953309925754              0.2996848100659689              -2.064699032717487
H              5.5456155734942              2.533571660931858              1.1573455584926768
H              4.847029169365448              2.22619143267622              0.9333665981364767
H              3.9201112388419754              4.997282857527679              2.9181649823353153
H              4.022034859305512              4.308428666244151              2.8914140300038533
H              3.426181244609366              1.3351616121432328              2.998022427288741
H              3.3551512689349883              2.0687706006889823              3.182337881161462
H              3.158277629709773              4.083236605960313              0.4503366631963203
H              2.8959455156751908              4.737582031155992              0.581370540898457
H              2.256629866945336              1.4290077945590036              0.8857376968386307
H              1.694417042963936              1.6464078252687162              0.5675157925390462
H              0.42235514209030856              -0.6459337809329284              -2.103939198841129
H              0.6021724983873102              0.1426142040114851              -2.317961671836879
H              5.538203746390879              2.4281806763109772              1.6905143145183448
H              5.115445590346905              2.419879972783163              0.9814888403237608
H              4.333307404618996              4.8354337006454156              2.987960424350263
H              4.0119404076838014              4.180081557681395              2.899823427798054
H              3.0824732566388797              1.2918835442147174              3.2641908735766845
H              3.455616919911599              1.9655061883353442              3.0650262552750505
H              3.2625572432680277              4.106626014582056              0.5987252991799273
H              2.774068383761904              4.690485235145409              0.6657080172432948
H              2.3285046174493176              1.463224668720016              0.6908126202051641
H              1.898379453233716              1.6590266919266978              1.2711065644423614
H              0.38082643015783657              -0.45279085479395376              -1.6968883923120561
H              0.4624075525897363              0.07639027812363232              -2.1750653438337557
H              5.709312203359901              2.5245844267335436              1.2787514348507236
H              5.013698997935066              2.361783214997363              0.981006056314061
H              4.350820143799181              4.506968364447772              3.1009376629871457
H              4.283482185434279              3.9649133685484452              2.673274154100472
H              3.3091324768584736              1.9569119309148741              3.4188795551351285
H              3.2512211646092855              1.9340280459964474              2.7634920497479816
H              3.268191995207914              4.091087024560502              0.3938975754330175
H              2.803136087197209              4.46103644042567              0.830453244049492
H              2.148164226244624              1.5357027521393996              0.9725057959498166
H              1.7204839870540911              2.1418675138630854              0.8546421259700788
H              -0.10634269380775205              -0.36539736250241106              -1.6082471241639866
H              0.23597847758835316              0.06163067811412273              -2.1550468185932536
H              5.4083166109630705              2.4484635295297252              1.290303872353272
H              5.282346875091991              2.102368562517165              0.6308306890389218
H              4.102430600766553              4.511055832131809              3.126915891739197
H              4.211533820929728              3.8401563811942685              2.8556710962038085
H              3.2904580127280743              1.4104924558265817              3.280476889346169
H              3.4220947531938526              2.0709198259917754              3.117182993149052
H              3.0380322739262726              4.093887458222304              0.35152774926091157
H              2.7665867288259776              4.563954251904917              0.8220432245461081
