72

H              1.7249506092739335              2.1157420931839073              0.255008167715038
H              1.5560529068932742              1.3808931474093527              0.5217068725658928
H              -1.0715367130992022              -0.28633499167511794              -2.193491416645606
H              -0.1971903882108446              -0.1256973349091873              -2.1876795142500316
H              4.370705926112128              1.8910503442551094              0.8997570319751086
H              4.608057449232839              2.421210661081465              0.48519708515016097
H              3.6803291150533575              4.284113719353595              2.6864509521868047
H              4.12082499599109              4.615989307814767              3.213150799522069
H              2.359643347670333              1.415975750369084              3.192836649750087
H              2.798573829852966              1.9111007893614358              3.363763142533784
H              2.6112947879395203              4.524505440436721              0.3285892221929754
H              2.236709870661479              4.032380393847641              0.7755077457404583
H              1.868008962920907              1.8184428816233549              0.10974952791540032
H              1.5228971004860623              1.3819884275094885              0.6408443822538996
H              -1.2436994486049229              -0.16605320195970547              -2.111641876704466
H              -0.5978698151945399              -0.1608589776412997              -2.335473705480913
H              4.618792749283011              1.8478315666949738              0.5860417427887576
H              4.476630088503802              2.5142540008315954              0.7967577258554049
H              3.5416563723997707              4.248859725831444              2.7180966211681428
H              4.060531823955243              4.756773972225328              2.96808549942623
H              2.2983590056281886              1.423847754003424              3.062326134336439
H              2.725315986082661              2.0221230634625456              3.35235448273321
H              2.623917114316022              4.274044334149071              0.36534916546826407
H              2.043625427728889              4.102207889335084              0.8034929691112652
H              1.517611962545238              2.0710377584811135              0.22507770593389187
H              1.7509634189548577              1.3503918591070498              0.3648560396380474
H              -1.280687012702807              -0.032520700980682604              -2.145342603897138
H              -0.7167126215893891              -0.07115692563984868              -2.5598602785093503
H              4.596665276124087              1.867745472878959              0.6623038231967082
H              4.515057256457717              2.4583373375594446              0.33502935819869967
H              3.6618638939467565              4.392099682330934              2.52302580144194
H              4.059047886671769              4.467709724973915              3.09828930849012
H              2.304283334249196              1.2775353977141817              3.0061489382288533
H              2.774466310929411              1.7891987437938495              3.2897758548873126
H              2.461970788859526              4.4069721460689895              0.3201355630204023
H              2.0260022359797807              4.441065568363747              0.8415171310290654
H              1.77678238075931              1.6994615916009417              0.2983457323804771
H              1.6186408160159838              1.244988561251266              0.7572779095058908
H              -0.9604096345707854              0.13731072868460104              -1.8114093899688344
H              -0.38390807043541947              0.19504496873336322              -2.3510977794040344
H              4.090445681002057              1.822233055385735              0.6049403495263705
H              4.234061999457882              2.5691617848474295              0.5727773816848233
H              3.9399757483829743              4.185649637590119              2.5672691645460652
H              3.927271116629429              4.320060106798413              3.2678376825329303
H              2.219993777211468              1.5866017680873845              3.0682218630279716
H              3.0331661914753907              1.432527985115838              3.201420766573393
H              2.218159592847731              4.422013973784644              0.23394907790597702
H              2.4390453126307854              4.309498385765509              0.9212600349689751
H              1.647967411429785              1.6564745352599914              0.3337061930318385
H              1.3555389016564907              1.6213046748719364              1.0288358122661236
H              -0.9688671802660843              0.029515890496666315              -2.009020499800065
H              -0.2677268488800646              0.19053079502428755              -2.214655965708127
H              4.786077549820534              1.9340894258053198              0.7528502203485374
H              4.610433023192838              2.5112808983850208              0.45768149985406115
H              3.8149105550489253              4.229655425007233              2.576683649528292
H              4.004320403330245              4.530671805327941              3.1907851204630733
H              2.473637315701642              1.3040484396963565              2.8326878554628263
H              2.871897134881013              1.9175684297515598              3.20141427217152
H              2.7566654600318183              4.1684386348010545              0.2568446528043973
H              2.4492708682969435              4.5806754399665595              0.7329859162076874
H              1.7619564114815793              1.9986628702345641              0.2802324315009457
H              1.4817363231775529              1.3749074029795445              0.5768801668065067
H              -0.9910720614147819              -0.06331152780037202              -2.3706292990016222
H              -0.3054774331383921              0.106654919383082              -2.1473938312461964
H              4.453733399332195              1.92469522533007              0.7297431618787341
H              4.590260764616521              2.4634905611584506              0.2644368286789478
H              3.5738025633486936              4.086561811586937              2.9361360254787385
H              3.8840637513481795              4.648944676622935              3.274994925218772
H              2.6313031192312084              1.6083144170629404              2.735638428329788
H              2.62205230749678              2.005784418078715              3.389868461139841
H              2.8077107004703747              4.163198980263919              0.1289762432453422
H              2.245167307626729              3.975185397904721              0.5479942865096236
