72

H              1.9151444066298557              1.238796840588738              -0.362847596157914
H              1.2797979455787085              1.2860997478516163              0.08581704598927202
H              -1.621281588138588              -0.818379641650047              -2.3162713565957778
H              -1.2447716781886011              -0.7682388477504754              -1.6913984620879383
H              3.7539234745110392              1.7425225159898754              0.85363859872779
H              4.367723606122849              2.031675977297199              1.021145741854948
H              3.6514701779113587              4.13499591614663              3.1507501233167976
H              3.93150272454419              4.18477962128091              2.483176655817061
H              1.4348622276021346              2.0544621066197792              2.5660294349746042
H              1.7673779865839594              1.736588727161352              3.1819109541070234
H              1.8667264769337069              3.9406130427035686              0.34498074943354307
H              1.3510015688358485              4.000962634347679              0.9101631919892321
H              1.9234126651575114              0.863174060243854              -0.3780180641137251
H              1.4369838244655058              1.192489319260841              0.07775363265840138
H              -1.856625027059297              -0.7114707241239003              -2.513600209198593
H              -1.3111880288968765              -0.779173031523615              -2.0360656451009627
H              3.9899167115704315              1.647713024432461              1.012026331520247
H              4.4145755228954915              2.2224590858795805              0.8899187712260034
H              3.6132678631491597              4.700957307445626              2.982739703050124
H              3.8619935117620883              4.3873565300727915              2.3341867354467922
H              1.615685281899527              2.069909676461348              2.4297029709914684
H              1.8874916999116207              1.8260845978283902              3.0484512976783913
H              1.8960211571754861              3.6617879594774907              0.5131483954196043
H              1.5091847573968473              4.214708589624374              0.7694060456634695
H              1.820969080701344              1.200504830595048              -0.3944242543489107
H              1.104401872527265              1.1778734690598442              -0.250069833554212
H              -1.7646379885835648              -0.6531242192356891              -2.6376536135952215
H              -1.1871904802066509              -0.7124837252106027              -2.2797615222404364
H              3.9923688104080433              1.7703188302160986              0.6305876874329878
H              4.364909321489975              2.3125571256372046              0.6908503235073522
H              3.6462219214974976              4.563255141463517              3.1248296991039544
H              3.772758324703667              4.490912116794208              2.4366673736347835
H              1.5216767784849163              2.1163168776746564              2.2891109103087492
H              2.014956765977171              2.0918285720368637              2.7776317450432204
H              1.8631282660602282              3.743739382713438              0.2861045934562061
H              1.4916744619571982              4.194835234584026              0.7494471901743923
H              1.7700424036531168              1.1869297394892253              -0.5923577635516278
H              1.2797386791661827              1.2955859457333956              -0.10920637188949846
H              -1.4178150831353196              -0.5102656821559228              -2.3745864768121594
H              -0.8088945261685802              -0.8604338709829261              -2.265730502494585
H              3.990312122584788              1.8088877493824214              0.6715248962915986
H              4.32012162780765              2.429459621488536              1.0932387537166572
H              4.08361175592612              4.093218268039366              3.158664036794405
H              3.882715046982889              4.537242350002166              2.6432975705257293
H              1.5497325707587315              2.235414774883154              2.323332495290301
H              2.091028243883925              1.990579218100697              2.8071563088885623
H              1.7343035345481903              3.685347822203134              0.266613534470613
H              1.6956191760423451              3.9647474732536274              0.9560792137164086
H              1.4440478592571524              1.427273393709458              -0.7296054507070759
H              1.7110030457068892              1.3175678244295963              0.017204386375692885
H              -1.4337312274238458              -0.4738337952722734              -2.1707252370883503
H              -0.7212883335139006              -0.8284518196033773              -1.873747369195435
H              4.524894205233544              1.7667859079933268              0.5744891404051617
H              4.358005323979832              2.449715032337166              0.7121182735556146
H              4.167774567477228              4.18794521458182              3.114062466313077
H              3.9840225845925956              4.2489692985585235              2.461676724464287
H              1.762164238178346              2.367114999182422              2.6486425459830416
H              1.6509092996472303              1.6602511190256446              3.067872791393255
H              1.8896935415252447              3.7154702967015703              0.26813290181664773
H              1.6279648662785566              3.9810041572679604              0.874216415339839
H              1.7923972205129772              1.491790052779              -0.41947117506390474
H              1.3913554698198456              1.0614685761867666              0.03439496785292025
H              -1.5829253953899731              -0.50327873045192              -2.3171930622189882
H              -1.2797580815399774              -0.935123048526671              -1.756745895936199
H              3.9934118372552754              1.702505852665651              0.5045591803762075
H              4.495104341708233              2.158010635333802              0.7388641470131776
H              3.854327360892832              4.049859300720715              3.287287764852876
H              3.998498538209856              4.153766743633992              2.56441660529537
H              2.0376857392249272              2.1678736898150586              2.5201511588097105
H              1.5403926143223632              1.85220080179038              3.0784180277081696
H              1.9471704493131718              3.8938731391123493              0.36283188810860983
H              1.3770748742927164              4.162997371156407              0.7174240303693524
