72

H              2.3912412613789242              1.7088812888891112              1.0153278185018022
H              1.6743780978952507              1.48330151380724              1.1602062129858
H              -0.006735558804888821              -1.0860640291894277              -1.9871856676607083
H              -0.6801959104963204              -1.123335749621746              -1.8356809186545842
H              4.760594727278514              1.9008243009777397              1.069698631990622
H              5.021941982671554              2.536892246094958              1.0748691737776606
H              4.07723077699961              4.847485271713201              2.5435929768181054
H              4.0441520666216              4.662588084442811              3.275771654654082
H              2.378656944311939              2.271176000218696              3.8056672690881204
H              2.9515418775948397              1.815587173815654              3.4669617830185095
H              2.7491042008406135              4.316171472650176              0.2615279151368666
H              2.996916656064432              3.630984115157302              0.4715274787494862
H              2.2411500315634894              1.828770142293922              1.3106937901365248
H              1.7457272614644055              2.0762330646256744              0.8860341480878519
H              0.20067663198047928              -0.9991490831746815              -1.8419395618343255
H              -0.517440751979774              -0.868072716348468              -1.7198457827603
H              4.585711503198751              2.0539363632972              1.1257811156525508
H              5.034563870010858              2.5615092882276023              1.4067504696271336
H              4.016284986728393              4.882403049067589              2.51409085038446
H              4.476421315622239              4.842158486559778              3.0514528476990193
H              2.548232327572123              2.315159044306746              3.488406719773851
H              3.2867889695059858              2.076169038025664              3.3090672735323063
H              2.974074422084012              4.478246925552382              0.6114004661537449
H              2.875606426451518              3.7748268304042947              0.5443568680841252
H              2.25619583894077              1.6139106411736925              1.1221877062265069
H              1.77342845730252              2.102671454885402              0.8445068453655067
H              0.13698223792734218              -1.009481162072894              -1.8236117368484157
H              -0.6119231934200099              -1.2699442301762955              -1.6636715163367175
H              4.639420059589153              1.9783540107110411              0.9290134624968561
H              4.781300103384086              2.678817287858122              1.1566796960038268
H              3.8546216460131943              4.840186348486573              2.5248830834506606
H              4.324635281602725              4.728166661664577              3.123945736614104
H              2.850774368304671              2.4779838019909994              3.5662094678699194
H              3.021883437341266              1.928979632645698              3.253017023056759
H              3.0758510106806654              4.445941127611852              0.1098073620324419
H              2.8118186279831026              3.9339125470144967              0.5671168544366142
H              2.3057159717777913              1.6778885553954879              1.0270105960121028
H              1.849826637415695              2.078850315787955              0.6369138785698256
H              0.11887092500745292              -1.263114575158583              -1.9621258860964976
H              -0.5985806442396598              -1.5646359786973496              -2.031821176961943
H              5.0679258691689535              1.9441604145068676              1.37142167702784
H              5.234656826124748              2.7491107734654676              1.45150714260574
H              4.114989433763207              5.019707708186513              2.488402069231323
H              4.1353812754391415              4.490470607212902              3.0029219209327707
H              2.394025146699757              2.3114661474570557              3.7969605000330082
H              2.778883476587527              1.708902778517896              3.565060020165264
H              2.7684973451120536              4.353844482176565              0.13057182498482364
H              3.0730298011813932              3.777220371408301              0.5056563068255078
H              2.192509355266752              1.2337869731014843              1.1694422513455862
H              2.114379540371721              1.8037595005629787              0.8187017369187147
H              0.0744382491743062              -1.200946114947933              -1.8062399548766357
H              -0.5710468001350297              -1.5413390913781955              -1.963546338033034
H              5.095705873236886              2.2384622547372732              1.1341717894464398
H              5.1041844341323985              2.924044248269714              1.2991516179317584
H              4.3887909897226995              4.648895727177059              2.5139645014315204
H              4.353071318035927              4.7359574809732905              3.1889372084794814
H              2.21994312315867              2.4305629316152952              3.6324451946771306
H              2.8858356166922343              2.253318572848828              3.71884263527262
H              2.71394104051917              4.423870300062211              0.2943430041840531
H              2.7469897983906564              3.7162958706045743              0.33343133301078826
H              2.297998020631357              1.607879183899524              0.9595837712395764
H              1.6328326206755406              1.6438895982142328              1.3576180190913707
H              -0.20053529805767026              -1.2481086088219902              -1.8702503083252662
H              -0.8736149789216128              -1.165430886446223              -1.8814611291945562
H              4.71342489370543              2.4199810408010416              0.6453893767302993
H              5.2017216980447225              2.573110971769292              1.1342822515246784
H              4.081315882812123              4.830639476877126              2.483373912256488
H              4.346724800343689              4.852482680425933              3.2487366153209885
H              2.384128655053334              1.880187902523313              3.812301933280588
H              2.9796923728261637              2.2487227080290126              3.5473753659180463
H              2.6397890686053076              4.399527147749111              0.3414311194387498
H              2.8255494569217              3.7638567427168255              0.5992416521040536
