72

H              2.236742405574145              1.2544728589051697              1.081368028613877
H              1.582941159765433              1.4734567972862007              0.7584827386630069
H              0.2552024796831324              -1.1565275888931994              -1.8533723486407594
H              -0.41859132753148537              -1.0823879866298267              -1.5882112738773149
H              4.869874128714536              2.010317598434901              0.8569914164793015
H              4.769723342900175              2.5713056432345636              1.375903265470389
H              3.990867649299425              4.644125153864057              2.5403337437984903
H              3.9769526197771956              4.839450702986432              3.229277562642323
H              2.726292402838927              2.6268014890576206              3.896952949124581
H              2.468726635266444              2.0228703940853636              3.99665221778505
H              2.8680116606776758              4.28118336356473              0.313872047914225
H              3.4263874808639105              3.8610472052812503              0.4032364598970404
H              2.2448495617134965              1.291632493939245              1.2692807209545471
H              1.7861231832918898              1.4437557299202346              0.6693240766621201
H              0.3431284449840328              -1.15564896741049              -2.0789452080321658
H              -0.28691800558118613              -0.9738634828131536              -1.6763665259386338
H              4.833091815950625              2.3436061805608355              0.6729847160361926
H              5.21466720088368              2.4316251234368247              1.2941778340092185
H              3.7781889248816944              4.6994220387307255              2.3705301598559823
H              4.029836335471423              4.919321371798846              3.0330789739417394
H              2.2537903772455437              2.389387516295684              3.6371020827673544
H              2.930144528024383              2.4608549939333075              3.9508771069897275
H              2.664751228566643              4.386167980461062              0.7064500789894517
H              3.0725668525288965              3.775540410742476              0.5422959839699533
H              2.380827642648519              1.4606725028509173              0.6984531630231511
H              1.7552402260151647              1.3165702771548098              1.0871250832110786
H              0.45033354280001114              -1.0124266783507252              -2.0099203604255087
H              -0.19419165193518942              -1.0422989795844353              -1.719400474548905
H              4.630897542887083              2.2344526893104373              0.5399059513211478
H              5.049970346677825              2.398201744586277              1.0965894910289813
H              3.4546336425839703              4.451190216934828              2.539902421979917
H              4.026221229735835              4.689786892476695              2.951097174423545
H              2.5151660502294533              2.7774549631859466              3.543833934773824
H              3.0911601921306993              2.433792084146869              4.002826320972768
H              2.4542697245317058              4.367587156827259              0.47690391900400175
H              2.90368495026962              3.800245131211028              0.3318407402999051
H              2.2065292670794285              1.7718386100875496              0.9868411812086985
H              1.7824255211111126              1.1827251992659227              0.8683257013753394
H              0.4534391583984998              -1.1165870516797813              -2.189029772708359
H              -0.016574094619269675              -0.8010784755087133              -1.900318716471957
H              4.731440619845494              2.2033329138851              0.8386797434964781
H              4.994446100657954              2.1906889999238124              1.4499784919878944
H              3.54555644753476              4.5793858037046205              2.4203689596604057
H              4.064638236613427              4.601867387059436              2.9766168787835747
H              2.803900984705491              2.3342266679981023              3.5321371255942973
H              3.1956508164769772              1.8413116439842396              4.031102536949553
H              2.4643193941159622              4.363807811835887              0.46346237370456844
H              3.03949131542047              4.07098775522222              0.12974852259791517
H              2.187147367962116              1.2029401302352147              1.2553790941002987
H              1.5141776478037234              1.4984542457446004              0.9142673479392872
H              0.7621559359847097              -1.1387113482564717              -2.0131091441308815
H              0.24431431101986875              -0.6556481449470493              -1.5527796972653263
H              4.893645960224236              2.1146397214154127              0.6214700048355457
H              4.9384592428227805              2.13315911444462              1.3902938393230833
H              3.6704111874843486              4.380793112310131              2.8268675479068768
H              4.352676696998536              4.618164090653569              3.0379443975034452
H              3.044052644635444              2.2573065529028393              3.2772468224016005
H              2.9435199796997913              1.9132844323101699              3.970750539178826
H              2.866950022634845              4.715027656665936              0.45352742177954447
H              2.8485190118848736              4.038352233018084              0.10062898601770381
H              1.9210679544657079              1.5534814319866639              1.176742428552957
H              1.3859927132290761              1.9638400353697667              0.9499347743796074
H              0.5434001961110846              -1.278145025827973              -1.59185291071863
H              -0.08162514498993348              -0.7695895873261741              -1.5127563370654298
H              4.784308514547588              2.2427370115479555              0.6600684472662662
H              5.121130525191919              2.1134487892836638              1.3048205760371905
H              3.8183330792397814              4.5011384674592225              2.8568237538817813
H              4.426521306462227              4.740252547135822              3.0723354092971036
H              2.759035050891585              2.532652495190106              3.651498557988854
H              2.943441924330446              1.8529388087545793              4.033051258728402
H              2.956198370844751              4.713117637238879              0.534665279562462
H              3.2682766059773942              3.9760631456575832              0.41002692252577827
