72

H              2.175835643389775              1.6048463099248635              1.1457898503889736
H              1.9333088868071187              2.2000428367164644              0.7050966271316386
H              -0.4606262611324858              -1.2451258045191087              -1.678810421819789
H              -1.102172086539526              -1.3687056736702001              -1.848213975506816
H              4.8026768643823186              2.2777270857278227              1.2972314624372951
H              5.048095842050483              2.9178183683902463              1.4075457817671388
H              4.541603812314592              5.010625355377836              2.3794276911126935
H              4.523264838521857              4.577447087868492              3.0431526176207977
H              2.5799557111273654              1.8961468601988005              3.8720647940247153
H              2.884362104126482              2.4073828900194547              3.281264744299214
H              3.0213915908695466              4.448338273350111              0.22083220854512325
H              2.820370216349706              3.9144819587906388              0.6884599719498774
H              2.4658030088129843              1.26049677289524              0.9474181039846702
H              1.8374992951180333              1.5932004927571854              0.8725378615234811
H              -0.5391482726160586              -1.1065379515008285              -1.9934657814823553
H              -1.031313007207767              -1.7277024534785583              -1.9945514421825834
H              4.993495581005445              2.168611693408399              1.2483169440263422
H              5.153899468850554              2.8999129692241774              0.9587246789956152
H              4.327685388843053              5.039393117925718              2.6191324307139303
H              4.065763031574626              4.502752542959287              2.98156529482194
H              2.4212258906439383              1.9897390636605319              3.9859210902921958
H              2.631046305617524              2.2459316368568554              3.2233128323649582
H              2.785394176389699              4.139154672271855              -0.041097890855490246
H              2.709018475159842              3.9190445219887478              0.6323235980940181
H              2.4599886954329464              1.413957411613597              1.0550611739056004
H              1.7904627610770094              1.761789340757089              0.8822385958102469
H              -0.21543657001518612              -1.0581867494100372              -1.9149303049757296
H              -0.8136146699533983              -1.521814617320586              -2.2687320596802727
H              4.941126960751447              2.311709043994847              1.480267662018859
H              5.335264210914419              2.8409922918916237              1.108067353269904
H              4.256616710255956              5.01688107044523              2.4466376642980183
H              4.256620144351713              4.5255929259994              3.0557226755993425
H              2.2857169395485633              2.103634263213698              3.7657981407248826
H              2.9860958560417914              2.2753058299385427              3.4418274604357326
H              2.566352197747454              4.330485130674395              0.4843690899977121
H              2.8725333233058246              3.6617648198317094              0.4291767213858836
H              2.447471021033078              1.328675519538232              1.109340169013846
H              1.840442615453159              1.7393688670873264              1.0691212184150058
H              -0.12520676378585893              -0.9442595794017022              -1.8202158801534323
H              -0.8056916943630276              -1.2781968281160254              -2.1342651755733937
H              4.525230264881259              2.209443868938792              0.9825912327460435
H              4.8981395077180645              2.846299993310041              1.1576336887947898
H              4.114830930471295              4.754196284582019              2.523584756563679
H              4.465563665526931              4.730492858074304              3.122192668767219
H              2.7774484135326767              2.17816595002503              3.5765213332555748
H              3.3577190339227836              1.9921093320841399              3.1534937299197314
H              2.8175233219044187              4.480653573625958              0.45847665298318224
H              2.6312838672601715              3.7667626536971417              0.2602038264308201
H              2.328834130169026              1.8735503617709457              0.8778926348245615
H              1.7559485753251123              2.0704883111716756              1.236121668542339
H              -0.03369696401560629              -1.194542918123033              -1.8512226983557174
H              -0.7496420815301899              -1.1350999949379244              -2.0609259329278387
H              4.545636826770689              2.0477839156988353              1.122638142144277
H              5.063595366472023              2.5033826587353536              1.2648955585764652
H              4.04637231727453              4.970443217576418              2.707731259698605
H              4.413686445590023              4.456178301279844              3.015440898823206
H              2.857158779395441              1.7756992836900152              3.6003436742891832
H              3.2114010783773193              1.538593580007046              2.8918657889494144
H              3.042673359127517              4.491752712250692              0.4413997596033819
H              2.894686933836144              3.7869396669892503              0.4588769167423576
H              2.095531319097702              1.6092516239493908              0.992179304270437
H              2.04675676935501              2.378507568904231              0.8691114178702034
H              -0.02140511035111408              -1.2269143204531674              -1.583694933174175
H              -0.6390699267295189              -1.3714439790495379              -1.8760646342150544
H              4.917149535688846              2.0237097020536012              1.6524913114828446
H              4.886009803804092              2.6773890553173665              1.1853321033354935
H              4.52413089317205              4.773487044644759              2.575553817519364
H              4.4382420232507265              4.335306595720157              3.2437401759710163
H              2.6000258054951324              2.40418926298756              3.6181237468039646
H              2.947164624294629              1.8142854258983012              3.247313959382377
H              3.22182058438454              4.50521165038443              0.3392192144068763
H              2.9797627122620414              3.8127187150493524              0.3304741766088687
