72

H              2.1416422759753853              1.363934141540941              0.813912974905231
H              1.6387807052539047              1.8325685920709702              0.900686542258936
H              0.5895708464367501              -1.189755954486679              -1.9484210167310319
H              -0.059711558051257316              -1.2631098933263736              -1.845076535795539
H              5.075807082778764              2.071332901545966              0.8305053401685034
H              5.214112376641258              2.485006853925624              1.4507879193224626
H              3.5986200779478694              4.727856630795794              2.6616072652587834
H              4.26810011899942              4.622625051735201              2.9320952960416937
H              2.560869444230479              2.5367167592402478              3.5488246034141446
H              2.766543331560715              1.9450017287183505              3.9696314215116186
H              2.8759868883197175              4.495375401974693              0.5544714895506869
H              2.905090233811282              3.8417915005124526              0.21808712981182976
H              2.2681570613172473              1.3796713813364119              1.132936704299648
H              1.7010902659053653              1.6465705016418295              0.7183085497706319
H              0.399414819620806              -1.2473667873947183              -1.7632780370585648
H              -0.34373034866841573              -1.3626524798690172              -1.8753941367843912
H              4.978120506515493              2.251974223517044              0.8287993611961634
H              5.054046106627441              2.763521509347065              1.3820733868744812
H              4.117793300282492              4.415596380094715              2.5018312916177305
H              4.169146826373847              4.736968851246839              3.1266217103005336
H              2.456534046870426              2.5924372763027153              3.7127109052069747
H              2.807780519529221              2.2649082081305387              4.201101495381395
H              2.68858920998419              4.439056761974386              0.3690812630218907
H              3.0439741521021895              3.7895160138773307              0.318190578941645
H              2.2221011962733157              1.2908257003515955              1.1353807203410813
H              1.5200804203259917              1.21757938219936              1.0563470440236418
H              0.09504428949408969              -1.2321495883172877              -2.02392076581756
H              -0.5231269849468513              -0.9212949042729897              -1.7546895452147262
H              4.781162469805688              2.4121933972702103              0.6382230747469181
H              5.124379532422124              2.3301067264525797              1.2246487551194232
H              3.9201715841728273              4.593812550150807              2.457191697062841
H              4.095187567267134              4.81863347695591              3.1985637185396407
H              2.36338121429369              2.0959340436009364              3.693742511362238
H              3.0098569395593895              2.071986969764041              4.014135421095835
H              2.598614139319124              4.413573736588143              0.40701619419141355
H              2.9861331317317195              3.803314322133444              0.4854719002557047
H              2.2420604152277863              1.5089646440140003              1.143946419023234
H              1.4877504762128013              1.4767603695489153              1.169758340595356
H              0.27330983228335354              -1.147320722037818              -1.9169812350859277
H              -0.1986966331454028              -0.8086237977227144              -1.5259733724615414
H              4.67204667541739              1.9786977437146225              0.57186070716139
H              5.193757412221825              2.3600186205957656              1.0858263761472862
H              3.755717808176604              4.458358941899121              2.58787332172299
H              4.132077218741114              4.770503181045444              3.212086070427925
H              2.322181567254625              2.3254288844937845              3.7006357509317462
H              3.0864887731242647              2.213766340085068              3.7309622229368733
H              2.835060223767594              4.5203080606377775              0.3527291998435473
H              2.8911987644032004              3.8884433009283934              0.619141007067298
H              2.125947782858791              1.8154263335711756              1.1240409754259393
H              1.4829642807195587              1.549369651121628              0.9874718429169052
H              0.304820757714283              -1.0170344659308432              -1.8788614500666345
H              -0.35997716318097267              -0.682818002942499              -1.5292172147630434
H              4.6521760591868135              1.9714600315263675              0.7935835184220243
H              4.9508162778697296              2.280032052281876              1.4248582181879357
H              3.720970015450644              4.744240249414112              2.5506330800184664
H              4.195994134087572              4.863537734267739              3.0827539136141264
H              2.7181406351365713              2.6980811741146558              3.58197804997129
H              3.1304921424923986              2.060358739341849              3.6929957446042376
H              2.66279506988949              4.395876732629834              0.32117098355587975
H              3.262423538687825              4.036403440631115              0.5185500751005173
H              2.1227115292553798              1.5074309641749568              1.29234562323849
H              1.894045593647989              1.6678481160330234              0.6135230418997748
H              0.3830962963881389              -1.0194688887878096              -2.1363212034597017
H              -0.22519907265339836              -1.0191454038838106              -1.6383865622858227
H              4.782369090037288              1.9888258993497114              0.7539455842491823
H              4.787119793115013              2.4832495203650597              1.393082404301206
H              3.6115130198967296              4.830289422517923              2.451905541593544
H              4.1344523073714905              4.823010286874378              3.054437007679928
H              3.0463110686057937              2.5377288867928978              3.632975019078155
H              2.790157025799824              1.8272441714878749              3.5442653279678247
H              2.8094239427179635              4.625911600270563              0.30199595202644136
H              3.104567094180584              3.9283574367056766              0.3087077911309763
