72

H              2.089807816253708              1.812883256009114              0.1993438667868895
H              1.807997946162186              1.4131678422956018              0.7370916588163471
H              -0.8062600188960503              0.05264308100779725              -2.066604284765541
H              -0.13466486326378413              0.25452371653294437              -2.647234315696702
H              4.654885836615366              2.0116594029321266              0.7223340722199053
H              4.391338978441223              2.7181694233473115              0.6406218579077556
H              3.958664491916929              4.264118354211575              2.6692459284815166
H              3.9139390965575953              4.61773372510591              3.4106270888441146
H              2.9682641968892702              1.3014654324405424              2.8824607138658225
H              2.723214917391223              1.9533239967905733              3.128913045105775
H              2.8517841485064213              4.34907280066586              -0.03141713923315737
H              2.3606753080401357              4.375347040243492              0.6152651511473042
H              1.792552252301591              2.0424467926074685              0.36693383422558584
H              1.9990854096952193              1.4809961899791668              0.8777282036785233
H              -0.5086698061118685              0.13086969347337804              -1.893639342876904
H              0.03643981098470459              0.21707778484196227              -2.30320527094144
H              4.704030851321884              2.082877602757598              0.7210526441268191
H              4.606476014935983              2.5594882138797432              0.1820203653936436
H              4.326319401845149              4.369904884898139              2.7045316253830785
H              4.060096333722811              4.2130332559679955              3.4044079455497807
H              2.901434210667315              1.1303226801184416              3.2331897043521165
H              2.9117943439026748              1.8298475108237007              3.2735748137548772
H              2.6723668667580944              4.573282704001433              0.08149865064025279
H              2.6132229444775694              4.260626332003126              0.7440890101783526
H              2.088157133975509              1.7890483563452366              0.4541807731852308
H              1.6620156972555857              1.743051345585298              1.020806177720318
H              -0.7633250651459493              0.037026555592547875              -1.761871304968269
H              -0.09857926374505158              0.12196027431803216              -1.9332715359528536
H              4.436885112859751              1.8880042367533922              0.6353497755687219
H              4.622352743044359              2.5619168590630856              0.43521121695609877
H              4.146348597916187              4.095449311685631              2.9174261800388774
H              4.02385632710074              4.422104003429698              3.56032289306636
H              2.6386042538895595              1.464643736910964              3.296960972513922
H              3.1596042621396343              2.042289500935662              3.373127932507016
H              2.6498333526151145              4.510903827946157              0.03797897687900828
H              2.6359570909039025              4.090668588631282              0.6216705538581504
H              2.024217803977268              2.075023715612213              0.1551864245215423
H              1.6453335716931876              1.977544647962556              0.7309564135849902
H              -1.131725439304705              -0.2736750631460137              -2.1285823087371933
H              -0.3820345091252623              0.006386838200693946              -2.2240030705300713
H              4.792380530385964              2.014553223006069              1.0866202703674361
H              4.687574818591241              2.334851241162219              0.3934393972171106
H              3.7366645200609674              4.426417455151939              2.767129185312365
H              4.017774797477155              4.484347777765708              3.414500979447432
H              2.459155012534197              1.39412960655802              3.2990018588028915
H              3.0008205932302365              1.9433462414313536              3.4915255978998974
H              2.9417371160198913              4.37987070578107              0.12562835215889026
H              2.295793231473997              4.258887828209531              0.49993179384458875
H              2.0484835035110316              2.1423133395833704              0.10329323133709327
H              1.8392743108453251              1.5550850838802799              0.3938179565750935
H              -0.9642471699033304              -0.19325726490147568              -2.1148636602788025
H              -0.4031084025562076              0.22669353665773995              -2.4072924664019397
H              4.402503917976117              2.0226585759845284              0.9463574074857521
H              4.2394812441007              2.4377010910953074              0.37829887100753257
H              3.7353667728453277              4.715799344925934              2.6215715185646857
H              3.948780316717515              4.3841362664331              3.2549463013711994
H              2.381764462283058              1.6571457328821153              3.4707658255429
H              3.146000598356965              1.4311979053396213              3.5311799523369403
H              2.616493505441092              4.503159450105957              0.13177586865663185
H              2.258914467160443              4.21749609717406              0.7039891459663009
H              2.040182936368069              1.9820704552656727              0.17522035501295166
H              1.5538106578129267              1.6291348751969725              0.6518988023054062
H              -0.8731934554230664              -0.06830605635056548              -2.0248467978616635
H              -0.33851696963010947              0.1484540799727079              -2.536252296394679
H              4.601347555324075              1.999255806378096              0.8629542403797517
H              4.348352528674987              2.5974930869216846              0.5427252789444115
H              3.815703194436357              4.71741312647862              2.528704368189106
H              4.154254422612621              4.538071213075154              3.1594507661927334
H              2.5979124067092036              1.3568782214548618              3.2480639241331217
H              3.1839265759606787              1.6568031001121195              3.2658174526355412
H              2.707664703573135              4.638186587184113              0.13556228748255952
H              2.3242479630038506              4.758760903358568              0.7566974771010717
