72

H              1.7860894404898193              1.2172613716128344              -0.43723844125800976
H              1.2935869443528616              1.3057909992737249              0.06614980707335456
H              -1.7737986314146548              -0.8407622630859766              -2.403960259638601
H              -1.3006621545213235              -0.8231275378234743              -1.7397526202845535
H              3.8179588164184652              1.778724833486417              0.9119523631920594
H              4.5743340968605075              2.031066529024296              1.0537509043347923
H              3.6365280308113794              4.1658777569440275              3.149429601677638
H              3.9443889826510135              4.144658386049862              2.440788388997363
H              1.3315135414273382              2.0823876359022995              2.4200033262594913
H              1.7599157207606457              1.8101729365601806              2.9061893367725324
H              1.7723849494702113              3.9386595392103048              0.3389971234314986
H              1.4353496005469777              4.021107232696896              0.9465903478922769
H              1.9279530403187022              0.8764882088569661              -0.4620837388396486
H              1.518232253718183              1.1932755688118235              0.07108906788916156
H              -1.7295254887338394              -0.7151564935751835              -2.499149204034328
H              -1.2297820599152656              -0.652771909835266              -1.9485552661045036
H              3.805983049155499              1.6562424032934253              0.8421215602621411
H              4.333264992089092              2.1796135189723445              0.8587874813111942
H              3.6928742542234163              4.521413802302246              3.0919773507607506
H              3.893008996046175              4.405768870401648              2.4061142096105015
H              1.588151092474991              2.1943632153137496              2.4283927893487522
H              1.9315735628925303              1.794739598215751              2.9812564794785903
H              1.6866567304854967              3.5229560012488323              0.282382157573695
H              1.5834095292249997              4.122034672210719              0.7792290302507531
H              1.8203398769875851              1.077552868467076              -0.2859857734990498
H              1.1224516725703126              1.0832094869475355              -0.15024987346208674
H              -1.6793477414926605              -0.721248428130551              -2.6226791371520632
H              -1.1436150828539775              -0.8154918042000768              -2.0889873414868
H              4.08283499690451              1.6636027106575948              0.6267873298079119
H              4.474440529543927              2.364097936373074              0.6821710594557772
H              3.820040542273841              4.726578560194767              3.147669246361521
H              3.7336956123495275              4.358638500179574              2.4585723576166827
H              1.5694068545833186              2.237519225980316              2.2572018082037686
H              1.9151477057589559              1.959711795875179              2.9079930255298447
H              2.005612539884753              3.809400189184809              0.2951915093698265
H              1.5064743921846657              4.220483559363879              0.6169468874673882
H              1.7747582135186              1.0420581698465419              -0.5891967364524069
H              1.1739343884285842              1.2797224295986869              -0.2639625667317573
H              -1.5642294588025907              -0.6183691949057387              -2.5242905234463175
H              -0.8370882144556665              -1.0574458095391446              -2.2712354797573586
H              4.186514068438757              1.7471419616252528              0.7064284705127483
H              4.426541400296058              2.344089231408163              1.0914988053009227
H              4.0475534972358              4.249419815302827              3.2741653023372135
H              3.6470586527958746              4.432716932601022              2.6331921858533405
H              1.401582338930395              2.345271439650788              2.4450267136531103
H              1.9303865598436456              2.0351005772440236              2.8214039139607916
H              1.8666776915274854              3.6819153168456364              0.22128720823407105
H              1.5590589542378799              3.8101199980556295              0.8849772366032922
H              1.3403452200203552              1.544493802577613              -0.7170955942554654
H              1.7601058956866256              1.2773869949077987              -0.194453572316764
H              -1.412036454907736              -0.6198340811996939              -2.1772877667804593
H              -0.846207863703312              -0.9152278079959142              -1.9607745577423163
H              4.2935563621588715              1.695613140008513              0.7479869342342838
H              4.279852971648022              2.488469498075912              0.6319665233360487
H              4.127383022321309              4.1553706496491065              3.1227332184533503
H              4.120653256822575              4.37152606373492              2.311829672266553
H              1.6230262016169048              2.175269393797788              2.6671930908619643
H              1.7117864630853596              1.7759999481373656              3.277268483960074
H              1.8181125495838035              3.7064637843273616              0.3647787285866659
H              1.496511453507954              4.147149446938292              0.9721151230774204
H              1.8652675475033755              1.3462936992855703              -0.4833052576595054
H              1.247620921503527              1.24197069803487              -0.014933447909303283
H              -1.6114974920200265              -0.5046636132972726              -2.170915409490154
H              -1.4576720201437583              -1.0034057061393946              -1.7397132020776547
H              3.8615110734638853              1.763685544869038              0.5235206185712474
H              4.190042145302966              2.2409233834131284              0.9479012735317465
H              3.9909250915691805              4.153009807369875              3.2160587176452315
H              3.9515266818738217              4.05130514858782              2.466954819325807
H              2.049882894484105              2.237849201354401              2.6987192501200066
H              1.441528688843679              1.7420511473494569              2.8868962099169204
H              1.9648674926634349              3.893033075574252              0.520114391251571
H              1.3350149298349643              4.1640644072728525              0.8287488560591346
