72

H              0.82752614434645              0.6572279100971519              -0.3727794859299936
H              1.487102213085023              0.9995653146679001              -0.25789843970262244
H              -1.0241531771785604              -2.6171038467217698              -2.0326812483372767
H              -1.6314099070301502              -2.8388888113584545              -2.1036225998719575
H              3.609832740787911              1.0439467289824005              1.4932052637758129
H              4.360313935877201              1.3013376103057672              1.4207881351724694
H              3.6728397397177073              3.630517928252256              3.185143967208883
H              4.295054772498315              3.993341880414549              2.937319788856879
H              1.6615251354939318              2.1598728577466115              2.2695353937663647
H              0.9457465712920519              2.1837328860642127              2.6536219394860523
H              2.7004743907065496              3.61845608245675              0.09076943916244191
H              2.024665940238884              3.7316740798241312              0.3473293836661376
H              0.7706078481331003              1.0349727446944705              -0.42165051419819743
H              1.400826407632083              0.6511874475914824              -0.33398164834183897
H              -1.3973984810706923              -2.4645164510767334              -2.230465982605056
H              -1.9410578673516534              -3.1134243406550253              -2.294318022482403
H              3.885321018356391              1.0076733542845442              1.55801070115676
H              4.511477786904521              1.2436042720708185              1.312615831676913
H              3.5867310550705924              3.9988652220064425              3.210622826768944
H              4.318367094166245              4.22433930388665              2.9552891240701475
H              1.6511689238694534              1.85934225412345              2.521701531386321
H              1.2246051921952228              2.561829690187283              2.4190835279657152
H              2.613549057720296              3.8030575154678568              0.04523530810235765
H              1.9332407095683133              3.6652848380619725              0.1883819116499028
H              1.338952004159478              0.5197208306509893              -0.722269402494909
H              1.198126021742776              1.0520754381883057              -0.3266230706003871
H              -1.2701054620119383              -2.392538246976209              -2.4449797552683834
H              -1.8907527775425816              -2.781350604498228              -2.166904353619721
H              4.023883422738049              1.0520591113926823              1.3408098202826717
H              4.559393978922441              1.3775756605843372              0.872998670241392
H              3.643225550926197              3.802376411446544              3.2402233330159183
H              4.179859650779265              4.26559455212432              2.9844944625020453
H              1.721265628302043              2.1939690881098577              2.455892820678204
H              1.1104627446744555              2.606811356208568              2.3879717709145183
H              2.52624555357361              4.264465871758547              -0.04986951390554162
H              2.088440499025911              3.744959540860141              0.1938873020244214
H              1.6383100999992937              0.7785685589773814              -0.6943676112994295
H              1.3365762305461952              0.9488305391398892              -0.09006197682976513
H              -0.9749244047204125              -2.2878928141223644              -2.024489110776824
H              -1.5689241990948972              -2.578468235452591              -2.1620296705991806
H              4.0641418832554965              1.1688246706978875              1.5114465809976407
H              4.468294085212739              1.3881899859739582              1.0129812666541798
H              4.080511888852585              3.497809340559821              3.2397624977544766
H              4.363016961803114              4.192400363783811              3.0314813039047888
H              1.4387444953458919              2.2922323731957763              2.8920071023681926
H              1.2359949463606856              2.445297777285137              2.222202281589999
H              2.8772524479693464              3.8607836093456434              0.11905420982974635
H              2.1163509887999674              3.7411515531658974              0.11301956297040158
H              1.138843144507095              0.6920665901480667              -0.7266145315927919
H              1.4661024503417261              0.919448361456153              -0.1281154594757211
H              -0.8539610706013225              -2.5472377718580352              -1.9257565841789834
H              -1.5832454907602311              -2.3786346063220636              -2.101405356046491
H              4.2285325876420155              1.1113100776580085              1.507505071643895
H              4.376954885861515              1.7562401142483899              1.1466072394439666
H              3.977944202467662              3.6351954316222805              3.3907179117902007
H              4.283908379848108              3.9959470784060853              2.7046896437369585
H              1.4264053784152229              2.222611249665091              2.7893655812734535
H              1.3022127750439332              2.2927393295089087              2.082411329935334
H              3.033086206911007              3.8462422380960137              -0.09107627741492108
H              2.410757329572353              3.534605348409769              0.22807114766946004
H              0.9852960133549209              0.6340350946916978              -0.5528353656794557
H              1.4094944085798384              1.158226127411164              -0.37742630617857553
H              -0.9410894283976907              -2.6357006863971493              -2.1770484103537955
H              -1.6704591153471147              -2.57770723766842              -2.1807515271931117
H              3.6990164372648473              1.3814116186882162              1.4557926285909804
H              4.268047936074173              1.2381866899124132              1.1198979392041177
H              3.732444349772683              3.4638332327970853              3.1857927654195284
H              4.210067629473006              4.009810413084411              2.998869489603423
H              1.7437142222232713              2.1279541632985564              2.510939660441585
H              1.326662817811639              2.350101979625985              2.0459256266816848
H              2.8851091536873876              3.597802943808141              -0.14119429556908827
H              2.4025052475275235              3.671776112693394              0.43476183794552664
