72

H              2.358303686012875              1.6597398195590343              1.1084380927020936
H              2.0476908376806127              1.8519196497327741              0.44637013007336906
H              -0.4448122881958735              -1.2889284271216834              -1.871254839120457
H              -0.8749114913815184              -1.7322046443842345              -2.249799838714785
H              4.98584228806911              2.16526570356743              1.6403560201133032
H              5.16835840291567              2.8414254903632266              1.3870894389885384
H              4.383565372252399              4.906098444077569              2.565345677214056
H              4.19547640608578              4.235877410808912              2.8266887680826898
H              2.6248746643528715              2.055253481749845              3.922835047500537
H              2.951636897455436              1.8352688874422782              3.146177765280648
H              2.9660203999813444              4.424320117641657              -0.03126778802340223
H              2.8617663033341616              4.00866880782892              0.530082652127406
H              2.245137870120796              1.0717483165445783              0.9425551720593328
H              2.159499108004973              1.805011089901483              0.9126300373774916
H              -0.3683914873841115              -1.1963963239983648              -1.8636624147601457
H              -0.8840424853691577              -1.6925516194626955              -2.2020620731735288
H              5.069663466698883              2.2732051876687156              1.4119598665182687
H              5.242329494843722              2.9823130569094283              1.2820843806312576
H              4.519642153899126              4.854688208171854              2.5639696736581357
H              4.437378436910769              4.340819456422165              3.08315739625373
H              2.3949701294542898              1.901148299935102              3.670107610037953
H              2.9272305232198343              2.2109901164993695              3.20940369924256
H              2.827939316757092              4.391883063650515              0.10361025366711399
H              2.528909460579401              3.86278228722425              0.5428629654934523
H              2.3197629829637685              1.371056059094777              1.014733047870085
H              1.7939142496522946              1.8149377023380866              1.2254434274365085
H              -0.5255813835946086              -1.2641666724689953              -1.6853019498054018
H              -1.0359483350557939              -1.4547593568670367              -2.121391088336918
H              4.804853079301759              2.3168174990345425              1.071235362372461
H              5.134862775315395              2.904637752988576              0.8907643202736734
H              4.5057822941849155              4.80406346584509              2.558378590589026
H              4.438522292661848              4.541310472913351              3.2756830099981835
H              2.6590330589985114              1.8009385091429428              3.8583545077945494
H              2.806403495190387              2.326382965318675              3.298668230671718
H              2.719807403529998              4.617160700806861              0.3770995254972851
H              2.8676845494542835              3.9160500318593847              0.3890106909202291
H              2.3827998981937806              1.5590163518444713              0.8688315887133861
H              1.6955285090456296              1.5635517517764188              1.081196546360916
H              -0.5188973424233811              -1.0530733492512838              -1.8408127397115048
H              -1.120173255643191              -1.2229541374820758              -2.1390849451193734
H              4.715488474041186              1.969310315850893              1.267005357962247
H              5.0990722968181075              2.7376333963954145              1.1196529743611734
H              4.327403140330187              5.050920016466379              2.5648329572557893
H              4.314062000475853              4.523331018762144              3.1337319640734123
H              2.6113628825102557              1.9434833345769027              3.919406468897524
H              3.041685401010158              1.8482537198562372              3.250744697944043
H              2.8184501237056243              4.2989145202681405              0.4907208072003878
H              2.9424712264191686              3.64524118501443              0.3225834778657068
H              2.3689082381548876              1.6224860833213586              0.959329832968684
H              1.7810325334314652              2.06025950561636              0.9930421911597824
H              -0.10220949875185213              -0.9607244235950119              -1.8269066488926125
H              -0.8835465289259145              -1.1770728032283193              -1.9602852949308889
H              4.509614852208552              2.2679817156734856              1.40643621020879
H              5.066598442724506              2.692955139256404              1.117559864966528
H              4.270645306602845              5.034468093035205              2.533744359879733
H              4.549712820547856              4.482974731432175              2.99092415743318
H              2.8391035059133536              1.7428955567662952              3.5435002692562776
H              3.232001685441667              2.221072592146714              3.05767672309211
H              3.228355952080514              4.431221031646554              0.6662112783116971
H              2.7463987539975796              3.9089290295070174              0.4395899499570787
H              2.103549374747873              1.4744512222088388              0.8445356627974142
H              1.839287053248269              2.1614445964843707              0.9079835181767882
H              -0.23160742904590728              -1.0272226546716237              -1.5858537804910118
H              -0.8211804397456376              -1.42536142176123              -1.997096407748526
H              4.627533265728159              2.2674490314239786              1.5358500187228523
H              4.897033854151025              2.6294148321877078              0.9157774638064802
H              4.127033889889418              4.9236641689343035              2.569106605053835
H              4.406566896009124              4.365860077716464              2.997539242347899
H              2.981472246405893              2.3449998346069343              3.629943908814224
H              3.0605638015219845              1.9688373035647717              2.9762308663910857
H              3.2442596605608105              4.580724634791926              0.3527833854437977
H              2.820965935515767              3.8999089104775817              0.39722023202182893
