72

H              1.1174901801811168              0.5439622344734815              -0.5209074227921527
H              1.529296174432806              0.8903041006570431              0.056758721864040455
H              -1.0982825531392217              -2.682099214257761              -2.054515784222042
H              -1.7585269257470506              -2.9511608232545004              -2.089501791209075
H              3.9170900901386685              1.047395313369442              1.5305467593876
H              4.623860390267935              1.2427799396070567              1.5470327462122972
H              3.715366445666454              3.5188419151024877              3.2319483939588753
H              4.20205739970346              4.034393440100373              3.031650467863972
H              1.3985370393235836              1.9370559725818794              2.1902292393155283
H              0.8834096167431092              2.3772106172377927              2.4641059700680117
H              2.658752555431749              3.851199786992849              0.015577979785491284
H              2.068244432257152              3.6739420329139643              0.3835101129698688
H              0.9311646191907729              0.9702938988836483              -0.5427580574585318
H              1.4197025316392597              0.6346735254468928              -0.10557624636470812
H              -1.437289836513546              -2.3648486857349256              -2.2145147822129467
H              -1.7718035667424294              -3.0264749760365275              -2.312658443098655
H              3.769959526792242              1.1017588453052305              1.517869262239976
H              4.450085184690671              1.234146932103007              1.1960393423914668
H              3.6321078336926              3.8318596693562785              3.200683996354634
H              4.170788713826712              4.307003832370736              2.9361042830301707
H              1.7405017238204923              2.004992119857148              2.617651148095753
H              1.1484918363863403              2.549325504113317              2.4227182992190675
H              2.638827195920598              3.580987782868382              -0.0009033860936652414
H              1.8697611406704915              3.583286761633693              0.01619850736466789
H              1.0929113366870247              0.34142599040413923              -0.515573836194458
H              1.140395486729052              1.0401601929167241              -0.23237243367501076
H              -1.2268679295210803              -2.440271323091562              -2.4183414281806264
H              -1.9189068167903611              -2.812138061828881              -2.3563873301645213
H              4.037335833279916              1.2865956956322282              1.4207266176558018
H              4.548740035905475              1.4659932917805132              0.9502273093943878
H              3.602999680890317              3.9436927997610334              3.2192264889603215
H              4.222746478679085              4.19148091248214              2.897303370959771
H              1.774913308898444              2.266195634474201              2.269401016654797
H              1.1893240507213008              2.4750284896527273              2.5491184974825334
H              2.8151833235836436              3.981603921475496              -0.12140029495573541
H              2.1720560129760704              3.770376555760867              0.2147152362148159
H              1.2118100835201377              0.6940277075758834              -0.6924225936131543
H              1.055168563914113              1.0345231531372105              -0.057658504164901266
H              -0.8489253704270575              -2.3797155826394483              -2.2259764883443673
H              -1.5067111890868115              -2.7433033057128267              -2.3169154400435135
H              4.203329876482915              1.0505315123823247              1.6295287895710664
H              4.559049510362484              1.533977301984347              1.0091765133918262
H              3.9722128806117647              3.445993566351395              3.302419534460121
H              4.059588388895993              4.118504370468393              3.048427232930235
H              1.3683985155565326              2.358235574069251              2.857809835806495
H              1.1570981408020562              2.5068934636034124              2.1430817940782427
H              2.8106114392987176              3.86110103032817              -0.11111071945986034
H              2.2898670640255503              3.57279697137849              0.31967238827798466
H              1.116879442403801              0.6849110149632387              -0.6376949890159543
H              1.4284555822508134              1.1141358176236293              -0.13193652961321228
H              -0.6584078547364679              -2.5759176408959568              -1.927197980982786
H              -1.4292771912086113              -2.4451647418760256              -2.080199103413994
H              4.032789405944987              1.2891808204543056              1.618039087629502
H              4.21804405771239              1.5828138815084507              0.9623757044890987
H              4.130171804796573              3.723820232499334              3.3479383820654744
H              4.427898181853541              3.831536546779942              2.6415134202201416
H              1.774226971128927              2.351642994999431              2.66719420384343
H              1.305021942776231              2.3219724854235086              2.052665968306334
H              3.0445682701895658              3.849913492511696              0.2257698049804756
H              2.3482077077306767              3.590304328450337              0.34966058565342295
H              0.9841319456523573              0.7377733012067175              -0.5226531340137467
H              1.1894663032497759              1.3233158569992114              -0.14905275141229093
H              -1.0080185678996094              -2.670839708473009              -1.8723167599926513
H              -1.773096133413345              -2.555753529966491              -2.1412019290176625
H              3.575729580113033              1.375505796263457              1.4120896748245961
H              4.2968419984296995              1.3108164941747829              1.1832159641205129
H              3.955913353364874              3.5640611025648243              3.387536926649323
H              4.423248783981521              3.820894276592864              2.9439035166434433
H              1.5614398994474992              1.9421968987842573              2.5561864588963696
H              1.005190523134231              2.28939688510259              2.1735208615291044
H              2.991999718600399              3.679759728858479              0.034753245464432134
H              2.349370486092873              3.641531381671316              0.4033217055919049
