72

H              2.5276485379459603              1.6929232813831245              0.5955667864822805
H              1.9730954435219044              1.2381457988941031              0.812764164615739
H              0.8307392857525043              -1.1255168407560747              -2.249931917233845
H              0.4495490679856944              -0.5251646658801042              -1.8354433687755471
H              4.618677986994027              2.364677845538013              0.9652927999057446
H              4.649274557787596              2.0661934189020807              1.5916455729816417
H              3.523753190242953              4.654035087914381              2.7251901564166476
H              4.205966072264794              4.431273483912437              2.983278437933463
H              3.2764134837961536              1.8593311678971256              3.39869770046387
H              2.930302419666771              2.123301801679393              4.045225687073593
H              2.76962852659176              3.7394625002718316              0.4555422950680593
H              2.741899594843615              4.302505715013313              -0.0141979337539176
H              2.3297986452050767              1.4548152744025096              1.274097172114667
H              1.8578984688569669              1.6148249870103073              0.6464226394688132
H              0.965631133814398              -1.1468064989092412              -1.9000024194936584
H              0.7508839763414926              -0.482249660346426              -1.695694816987574
H              4.772953693690128              2.625935203887234              0.8709408576042676
H              4.846038895436154              1.9583078566236503              1.3363528040957195
H              3.813511576521891              4.340736889673894              2.940316401717275
H              4.569815418262866              4.603620863918              2.91617327423438
H              3.105478419515796              1.684063807919149              3.491748272251916
H              2.961784231749346              2.056953511293502              4.032233593220631
H              2.947441954687061              4.2198317117799204              0.805092505238867
H              2.8087378486081107              4.136092649298698              0.12063910744881982
H              2.1652842280626277              1.3106023078522968              1.0637935082597514
H              1.5406434110901828              1.739666273295103              0.93557868521432
H              0.7162999864165054              -1.134964572944711              -1.5102010205331997
H              0.3310670385882091              -0.5167120327774544              -1.4953718181941489
H              4.597906391383217              2.484917932843406              0.8063694821786902
H              4.8860118945886954              1.8303224938241065              1.128561434361059
H              3.88160418153854              4.308333483349336              3.267736406961151
H              4.458449369548967              4.603640107834959              3.0367556428355322
H              3.25203774758445              2.140917759633717              3.6053458975782373
H              2.6970526361828355              2.1565308991567584              4.041048243736458
H              2.856764453247363              4.236985962573908              0.7317610098540733
H              3.151131592166968              4.08990838021023              0.0849585168782764
H              2.3381889381289325              1.309389174067899              1.1422011376491443
H              1.9066005503895438              1.7582069456368894              0.7664300910414826
H              0.5540504842912957              -1.1480816207864675              -1.7963027005215098
H              -0.11887265380359571              -0.6929152862657542              -1.6143724859148214
H              4.460339169388512              2.169923746084282              0.8261311053799898
H              4.88958313985959              2.2178982386762875              1.5365291346146568
H              3.862091154188088              4.473150972235234              2.7664690397687575
H              4.258915641305355              4.883017947585694              3.2646689964979236
H              3.005328154755813              2.3747391127296114              3.5731827856999345
H              2.748989280539304              1.846696225913841              3.9117811568485337
H              2.7648746570761293              4.1202022136739105              0.5827225422973059
H              3.3904652439839236              4.136553043252773              0.11113328322585482
H              2.534631374171821              1.3173024010121106              1.1770857086284394
H              1.9203941734214214              1.4006847388549069              0.6985838559550854
H              0.6779891634148899              -0.8923145931585814              -1.95972767591291
H              0.08210020548675985              -0.6749549022179467              -1.6739208238961512
H              4.6712066521708495              2.3207335502211834              0.7511131006762464
H              4.930388538952391              2.006139057541817              1.3094930338820656
H              3.6273145390801824              4.57702843198675              2.784698226147204
H              4.2242289011926815              4.959301668178648              3.081460520976902
H              2.784782039467737              2.4137544303077134              3.130927240794994
H              2.9340786495028044              2.2416657296836875              3.8364445504566946
H              2.5462187751507677              4.080087980542681              0.7291465661411436
H              2.9982204562317003              4.122373487977592              0.16830707332928052
H              2.5962781072453316              1.8703790474342536              0.9423621186102059
H              1.9804393002312235              1.6537370024053524              0.6708010411939457
H              0.8092680082259078              -1.010265345911692              -2.069085169803019
H              0.23893948278901075              -0.7043335085796814              -1.6845551357336637
H              4.565179981182071              2.4182126285443455              0.7007098490589964
H              4.946861837149136              1.9691548351929689              1.158066095008674
H              3.504101501159751              4.563582937442269              2.732787429702176
H              4.193730467669344              4.750666418733576              2.8571727939140326
H              3.0206466581922653              2.442860277071964              3.275568160193867
H              3.033765104273775              2.259278442040482              3.9760706138778885
H              2.571832111963899              4.082593451118106              0.7920596534133383
H              2.827903026506328              4.212007982657626              0.10615938166985818
