72

H              2.286718194456119              1.5588006446718634              0.5932210921981407
H              1.6262814069467662              1.6812807689644087              0.960199317571177
H              -1.1434381963360272              -1.1193668847252856              -1.7183426363850225
H              -1.4686321024018083              -1.2696101752160445              -2.413740525551067
H              4.944207689288381              2.0975236941471826              1.2971503223561793
H              5.212464341545787              2.680418019333628              0.8761729736516504
H              4.44693856863843              4.9371873295641775              2.6285629589321515
H              4.57579913615019              4.320239487429282              2.9768302506599404
H              3.095047600931974              1.5329036597672945              3.8839717158514717
H              3.006420166424421              2.087236816378931              3.579608828551328
H              2.918424124445314              4.53196612548059              0.7910013629881195
H              2.923045599020349              4.044744561288429              0.23119538321031738
H              2.260877572051004              1.2277844315909396              0.489783884263041
H              1.713707015383383              1.520703892341046              0.9077056744559666
H              -0.7752229151865828              -0.9396719929884364              -1.7801367217686999
H              -1.109018297714157              -1.3799603943590941              -2.230804573974317
H              4.88721664448035              2.3506887801868612              1.387268214431138
H              5.131955240485898              2.489399003956985              0.7095918798726922
H              4.400976121365683              4.927911057715272              2.8025728246837898
H              4.454566603034485              4.165587763033105              2.8563363909754305
H              3.3637594393249364              1.8062528426763202              3.7537926326739184
H              3.0309598960837842              2.095408171286111              3.14595987528893
H              3.2601106735812357              4.464555459759791              0.6763277774049737
H              2.648871110808107              4.232605919154902              0.32255719704811725
H              1.9624459832500827              1.1868720991695925              0.7623868232734684
H              1.8715342024054997              1.953950594994311              0.617597520541935
H              -0.7754233282370933              -1.1930259814574393              -1.5896276598539996
H              -0.9481462469844046              -1.4468482383449053              -2.353663259245715
H              4.918371913294892              2.5325581796644285              1.4489908775023659
H              5.140499938504336              2.2873876956841523              0.7788022416925842
H              4.206098478259903              4.868416489333669              2.7855430117085227
H              4.4516005931241205              4.180977521625498              2.8630536168678185
H              3.2892954460791115              1.9507814522475875              3.8228356791412614
H              3.0629229837563106              2.129806538040268              3.108009715941262
H              3.2368595916542513              4.745612793082175              0.7424404523827631
H              2.895835985493963              4.359095595359097              0.19883130802712543
H              2.358831320884823              1.2032009320620292              0.89452074149183
H              2.0226135464138317              1.5768426612002167              0.34003576760047466
H              -0.9922723320961973              -1.3252755130458453              -1.8463636255083862
H              -1.0116066597769398              -1.7829996368805718              -2.4780368834380484
H              5.112809224588001              2.1649192324843436              1.5136452985392905
H              5.1020811209674095              2.649270736242992              0.9804986591592382
H              4.322728881435837              4.7371578535848275              2.7385629002920724
H              4.313155529304714              4.039574713924819              2.9648480608203287
H              3.1619063192030876              1.7881728033920572              3.8721056124240314
H              3.006350256987392              2.0920160891754023              3.178528375321193
H              3.236142309356081              4.57569194773175              0.26927256294848173
H              2.5369306930605178              4.232183909464174              0.291274345062547
H              2.4697258587683764              1.2680932438316401              0.710278935397063
H              1.9386372903221551              1.7701008128672924              0.8623762275320682
H              -0.9248070762810547              -1.359767001290136              -1.9241375602366282
H              -1.082276350630071              -1.7383597850502879              -2.4984729557434524
H              4.949463649919726              2.3591221315120365              1.4666073297611584
H              5.404148939751688              2.797997953875932              1.0047165720188773
H              4.543670889617656              4.749546441677224              2.9040289144284075
H              4.514974654323363              4.03579206252816              2.81385979854609
H              2.8599571986964194              1.4651965205771216              3.545068146053182
H              3.0145115450012154              2.1080558653298245              3.2219936301551844
H              3.051891080778844              4.501854380574763              0.33384660638785074
H              2.481936475783466              4.143377814498946              0.5897954330236758
H              2.254924934706762              1.1704458729031364              0.808164834589836
H              1.8756829893605311              1.7567972000356218              1.0248904869887765
H              -1.0860100252012217              -1.3071246342002865              -1.6424184185475497
H              -1.1164987919527054              -1.5904017551137575              -2.3035414951050703
H              5.0055623248655685              2.402936863610982              1.2137427972003612
H              4.966433577313335              2.6515159231619645              0.5509202847831393
H              4.652626508228179              4.6275494645581405              2.761061267207147
H              4.5178669573890105              4.135213438698832              3.3239547443508433
H              2.8677498981401492              1.7243436299886123              3.8413457698112343
H              2.891763649887367              2.3768996967056353              3.3518419431820505
H              2.962519911773012              4.684754665229215              0.5889690444946307
H              2.802120113621355              4.1430067517077065              0.1768580390558786
