72

H              2.1526601943221912              1.8977874637618237              0.23650977826848776
H              1.6857521424233484              2.0073459696146703              0.8862971951608161
H              -0.5953291882946524              0.111879218998829              -1.6507104793408627
H              -0.2282466501110862              0.28443800446233386              -2.3098637809085187
H              4.473807812373699              1.9691808272787512              0.9776986609150593
H              4.417113309325368              2.471825569506325              0.37360546182884535
H              4.246908225184109              4.583168379561227              2.8278436863159104
H              4.064305213707565              3.9878231142214444              3.288824260571064
H              2.7608578475831784              1.109278212523483              3.455951125475695
H              3.33449338760937              1.6292973255955252              3.628602024924535
H              2.4297534083673504              4.614787306025233              0.04153299534903553
H              2.634450707519642              4.592145967202256              0.7558992394840222
H              2.1079687139803718              2.0620962910926557              0.27461899224567193
H              1.6960410331924387              1.8486373967196459              0.9173094708209877
H              -0.5397656459956125              -0.03600123576559399              -1.933148349151483
H              -0.13540470802670204              0.45820423773668023              -2.18005858536032
H              4.849437534788534              2.203220531142161              0.8718983892469163
H              4.2148804680352985              2.479149193118237              0.6390990225086594
H              4.041566390693169              4.687427843182277              2.7312379966850635
H              3.91823805663387              4.194779588706987              3.2914656810628005
H              2.9363721265710114              1.299706733253419              3.2353612498908886
H              3.1830850126654644              1.9769849880402224              3.333444596481991
H              2.98893375105536              4.320696622249473              -0.03414396664540831
H              2.6425170367557995              4.631169371153776              0.516558105346304
H              2.190213187903745              2.133466350315592              0.3622598798208829
H              1.6174223227349915              1.6211125414186238              0.483365792921597
H              -0.6143897297317136              -0.07983443868729924              -2.370200591900753
H              -0.021779003807345442              0.2756941495453436              -2.3453235731614637
H              4.77240207801341              2.2905061264543356              1.095820509521195
H              4.521588143504087              2.48183211894486              0.3884736703124091
H              3.858065341776141              4.6038534267248075              2.740541195025062
H              3.9697828911541646              4.500359516066854              3.45071825967411
H              2.8870005474828915              1.421976690589273              2.9899017890519035
H              3.2645621993108076              1.9859218155972693              3.332644449381756
H              3.095395482261846              4.494517273235499              0.001143173262539791
H              2.5738694847646486              4.384257195367444              0.46458945337901464
H              2.3415885636189913              1.8750710031852924              0.3126583318115403
H              1.9425324210048502              1.5105546404252046              0.7220829554321446
H              -0.425447420587994              -0.27428909131095025              -2.0168474108228223
H              0.1297436776494648              0.18012992676677872              -2.3293200723508822
H              4.476412003700771              2.070571725995281              1.010687121388569
H              4.5154209950495305              2.6958149674815868              0.4788843875442129
H              4.162058909585407              4.484696863645876              2.7702208034598157
H              4.027518029396109              4.487090679234665              3.4951167908352834
H              2.8223663770856002              1.4396598413751336              3.4360022668380736
H              3.029622966833052              2.1047172591836794              3.0502802027211793
H              2.75651795181545              4.758459019104741              0.09607170498169698
H              2.6918200737691516              4.140283532510266              0.5159556500126309
H              2.2305434130689883              1.7499835322563673              0.2891375226886129
H              1.9377617555938405              1.7376408474856828              1.004769848245488
H              -0.7261407437497865              -0.10721174399594098              -1.9191688717882776
H              -0.21428123866969204              -0.07848552923354457              -2.384464906866475
H              4.9646704268141955              1.9588104993219784              0.8645124268934558
H              4.8062685521566415              2.6470750318471814              0.602289781618498
H              4.209978102117705              4.490716017136247              2.7551749236910874
H              4.142787330991419              4.53825711991674              3.443026758187733
H              2.721318099952259              1.4686976666956526              3.217415376703473
H              3.1074153856802673              2.0863433476272686              3.149160139605847
H              2.9072500997149464              4.598697156922259              0.13709731569698408
H              2.3586660844368477              4.412713189413669              0.5536629232827546
H              2.122458994113838              2.111336361739075              0.12354752156240943
H              2.2387736450094913              1.8076288735748294              0.793914109091664
H              -0.8395905877143186              -0.05075762068485414              -1.853917962256824
H              -0.33521656487794216              0.17541327456594685              -2.4098172726060327
H              4.771831783628661              2.0084235040044742              0.7007512993806162
H              4.522232474844905              2.469375185726885              0.1946765636618303
H              4.0777978231621095              4.490239169214672              2.7698449939592367
H              4.065413635289667              4.15108923438102              3.450025366859007
H              2.5205475574646097              1.4424388291499426              3.48660845693017
H              3.213903047418638              1.6566750936014074              3.364365530883671
H              2.6807520034529206              4.418047209160934              -0.0025792599712539943
H              2.297041778598956              4.246316628509904              0.5966939131571916
