72

H              1.0818946470739152              1.082921897676242              -0.4307416492367324
H              1.4408119728127908              1.150211294577442              0.16267399716038844
H              -1.6093056232173355              -1.3749766074201832              -2.275508763105741
H              -1.9115890490221359              -1.5954666705818448              -1.5027974097321857
H              3.3357621240740696              1.4885437001241302              1.0780192826537502
H              4.0298333664113395              1.8772437755368478              0.993130921034385
H              4.015073750721779              4.531369004735667              2.6670260375315302
H              3.9893711910789786              3.8041539232076675              2.627612049725811
H              1.4031697878399882              2.3715691786353545              2.452024648337781
H              1.984114369226397              1.9304163471621987              2.5349659618336418
H              2.1805732530401203              3.830970595183539              0.6925748829089248
H              1.5184334851518926              4.122318598818727              0.7979372168469409
H              0.9862464280292467              0.8342529933535695              -0.6659538608062281
H              1.2239807326084193              1.1604716748480128              0.06129183116336374
H              -1.8174445828322061              -1.508513187302733              -2.57840661083574
H              -1.9642677826806918              -1.593669916597129              -1.779240460876784
H              3.9035854056213166              1.331147779753859              0.7425176731125842
H              4.2720222299746595              1.846168441559904              1.2913365612625607
H              3.8314052347952945              4.705976145286308              2.577742067379392
H              3.570446059221463              4.095682086464969              2.8875492822128295
H              1.0835660307925543              2.307956154278104              2.5954285073034864
H              1.6394361543917617              1.935532677655844              2.4876096883893117
H              2.224504072281501              3.98160081163839              0.40936731727849196
H              1.4825938171104263              3.990100707029086              0.5508011992747852
H              0.6456640503036835              0.6319139947257635              -0.34007711882360026
H              1.2787781425164406              0.9227403383816956              -0.10349474093758639
H              -1.7143080903629648              -1.4300005501761346              -2.794959481232436
H              -1.502139114784919              -1.5681831431860176              -2.102700510722244
H              3.869851397238472              1.28304259787595              0.9470427351987789
H              4.38960492081075              1.8928207496208713              0.8889876360240564
H              4.0684665390412516              4.77218826985157              2.792995089245219
H              3.5086650616188444              4.255528764393738              2.7521330310385324
H              1.1195059590257863              2.2749231070917535              2.7177006738961453
H              1.8774670592523441              2.0947075199493552              2.462715534567902
H              1.8301620105996428              3.840135683860244              0.11865277521087314
H              1.753339960764169              4.138601371869405              0.7552231736957961
H              0.6990106686278617              0.654659291752833              -0.42475894720250684
H              1.0936146184950921              1.097372490780767              -0.028798367057927106
H              -1.382341216995387              -1.1402388928568248              -2.4689810341385057
H              -1.2485185746925356              -1.6259340313251325              -1.7660907480876369
H              3.876324087487707              1.4613142175689924              0.7325491585428259
H              3.9314550085363957              2.2035540479926508              0.8137130599533896
H              4.365287299654173              4.494872908409096              2.5242565568551885
H              3.809673851685682              4.184184054798361              2.9599528356205336
H              1.291996871496712              2.4143430963559784              2.9147131193512505
H              1.6489442262014273              1.8755246712541984              2.6800564924804604
H              2.1284539288390145              3.928206785859088              0.2942229290084079
H              1.714606081232225              4.154609522650434              0.8097280292264412
H              1.2809019891821776              0.7461168588046404              -0.5972775262347835
H              0.981076172315429              0.719126815889289              0.016488983201650365
H              -1.4880393637834328              -1.2659239429780902              -2.2251809521454233
H              -1.4554857480572392              -1.8002443340784477              -1.8142018868185856
H              4.020357758070119              1.5425951799298405              0.7589557062601093
H              4.294634797684613              2.1308137447207622              1.186920250425674
H              4.351322242487422              4.261195175738407              2.568079241710296
H              3.837620500252289              3.971123533996202              3.050856867749118
H              1.1729348612424124              2.3439940994201995              2.742720581541886
H              1.6956246168099813              1.927795376201364              2.631659137603219
H              2.4505766303200693              4.139578451081502              0.6352973875237893
H              1.7225071437197172              4.095186291680083              0.772367885974619
H              0.8165747126335576              0.7602316622265154              -0.3615974934322927
H              1.2313413378358786              1.2704113130048829              -0.014458917843611406
H              -1.540811719824847              -1.4591289228411015              -2.2422733488660134
H              -1.5016668914385751              -1.5283891541608943              -1.5662424550904073
H              3.684895906065471              1.4815500184581767              0.8240654363234218
H              4.196879545173683              1.9475764461268035              1.0420180331862756
H              4.17599735145433              4.299353082337461              2.684583733917423
H              3.7668749008278275              3.6768479874720263              2.828965432507057
H              1.3843797850805397              2.2140654367919006              3.0048322979936883
H              1.4367180133198498              2.07247144517769              2.2291118556070337
H              2.146462310670918              4.0977349782193535              0.4905339493150996
H              1.6013892910821939              3.991727134695623              0.9504786235599707
