72

H              1.5148621530006767              1.0124253146874134              -0.678739080306844
H              1.341808035733695              1.2691794568182877              0.00872228363684358
H              -1.6694487047576747              -0.5704410206532856              -2.391218217122634
H              -1.2601504800020082              -0.9974936386293312              -1.9429923718311886
H              3.9647524374971512              1.745663757082963              0.6321694383630514
H              4.160406550662013              2.410480133797322              0.8359198355407633
H              4.282998474692339              4.448262621689043              3.0974190189719883
H              3.879776731098174              4.298404959709721              2.3991771097562213
H              1.7338042376629792              2.4553277945546004              2.4000233253290957
H              1.7638086699895086              1.7572271996942554              2.6596413210782766
H              1.7187586008342342              3.638038542132731              0.4102357257678275
H              1.64738007476473              4.2012190013379955              0.8806551534762341
H              1.5814029262767852              1.2399189537854745              -0.4466014659726699
H              0.8985443474992374              1.3196413428146327              -0.1670749126826722
H              -1.448085323649404              -0.7836632111217592              -2.3897403269962987
H              -1.1325180691775294              -0.9887125004747573              -1.7347360945409833
H              4.1383723622496955              1.7933376427597687              0.4749739892236834
H              4.432197219089151              2.2101502085023412              0.9502746305354106
H              4.23165016038304              4.171514164055098              3.228839784173381
H              3.6731882566053304              4.000632443042817              2.740922669685599
H              1.442349307356295              2.494346801921615              2.500398209855418
H              1.5920800130141977              1.8378840150109668              2.609808955492398
H              1.947584079958421              3.9151464979289              0.14600124250631646
H              1.5391721726266154              3.864417446749321              0.7499167931990443
H              1.7586646370139607              1.0762421491802747              -0.4677522828575332
H              1.217556562266597              1.2910017921511534              -0.09204736705971131
H              -1.3955707681795777              -0.9735133933218737              -2.3555021978860275
H              -1.0607767288459875              -1.0577332845346112              -1.7519588356456206
H              4.11034432741284              1.6030847874924483              0.8472021795201851
H              4.571494083031817              2.129089198453369              0.9468926174030167
H              4.152985362508408              4.2969638578957765              3.2119226052790797
H              3.7818108208239454              4.07017817681813              2.611935460797552
H              1.4257161247732282              2.3952033969188133              2.716945302975373
H              1.6115983702908192              1.7919994496750127              2.9876275531542262
H              1.895875679332846              3.666341668444827              0.1636533319730465
H              1.5222950769721373              3.890035335275268              0.757163870723918
H              1.7264561335548052              1.1029153833235512              -0.3143599894277422
H              1.036987838974284              1.1479733254879763              -0.08120983560659256
H              -1.6704324569213407              -1.0115792026480683              -2.4029207221173556
H              -1.4225117018745654              -1.116189587494741              -1.7368862233292608
H              4.007087954521057              1.5326181092307292              0.7663980078662677
H              4.328826687456203              2.2069198818005367              0.6266761237223365
H              3.7702847311360013              4.695510642245377              2.8825532563566685
H              3.9230497847600403              4.0739665668986325              2.5401698454757327
H              1.4819155784304558              2.3075545594412934              2.8282092074148286
H              1.5082582340434185              1.7135341125117634              3.2169721076501485
H              2.024180287516983              3.826117079983223              0.5354257633620634
H              1.3720993293053338              4.195849447719467              0.547645694759295
H              1.5211400715940073              1.0269647500743722              -0.5533343493658203
H              1.1209776721772213              0.9170454652545642              0.15541133374624932
H              -1.9353682778529742              -0.9019738953274248              -2.608798785350517
H              -1.6244800321122272              -1.4056017769790359              -2.0205273362257796
H              3.674949700407298              1.714513899809599              0.9417181946670765
H              4.275861360792486              2.076533488218              1.1829505547950172
H              3.726637082805765              4.597642315923062              3.0905245912831374
H              3.754457332988986              4.177681216045934              2.448978828719071
H              1.2595347589995813              2.181941715804367              2.3743037890504257
H              1.8084066607243332              2.021770468428119              2.908918657066148
H              1.9735624997011254              3.9140262387575735              0.6861539092580704
H              1.2791292526900901              4.123257422294047              0.8694808211245478
H              1.2313170767417958              0.906682673136366              -0.6756624197670944
H              1.4807323134790742              1.4195105556849716              -0.132894925961649
H              -1.8029923440605218              -0.8626048261080579              -2.4448039713282737
H              -1.198385587131073              -1.0707170766072658              -2.057353769507958
H              3.8494620672070985              1.7320978407411562              0.9997634205849815
H              4.17238511540463              2.313603508658844              1.1439097615234595
H              3.9817492873918567              4.501395341758954              3.011047814021402
H              3.8664410783674033              4.355852316446153              2.293500541048938
H              1.1234240401681048              2.237325935232235              2.472048351313076
H              1.8097755735273715              1.8947341684243664              2.7662816668045602
H              1.5497916939388512              3.7241781168244095              0.46768108328795893
H              1.52067826077314              3.9937079052796247              1.154147373530134
