72

H              1.0991668377022217              0.7642238441542633              -0.5642802434504727
H              0.9320064670669278              1.1867255933207692              0.0027943616044784365
H              -1.4505615144772175              -1.0383339760520265              -2.463829053693276
H              -1.0821082128302415              -1.392666393231479              -2.029998826684277
H              4.036826287051616              1.6691140977385506              0.7064596788838859
H              4.233833778074144              2.1752199017176843              1.175555766315388
H              4.252381370789614              4.439475212048512              2.989322788785932
H              3.6005873303339127              4.161193564937621              2.8119735970906716
H              1.137551775104997              2.5101589085077505              2.854865255299252
H              1.5542464918041918              1.88103133060211              2.7228703622896187
H              1.931778816549592              3.8115523810235095              0.25828342853190084
H              1.515726301623212              3.8679180031686013              0.8818331088536029
H              1.3900390221734487              0.9159774430745243              -0.5560629056915326
H              1.0457052335010895              1.1387044601731844              0.002095600013385014
H              -1.5388248489437286              -0.9472562797350973              -2.2481155000438684
H              -1.2026466421245827              -1.4824468140889944              -1.863795685806595
H              4.153200318873751              1.6424331725913468              1.003799689232446
H              4.275095168921944              2.3280054087514954              0.7971823638107751
H              4.376975703165313              4.606046775604512              2.798809621318339
H              3.9542633580116613              4.01068871096465              2.5645564579679783
H              1.501274338404705              2.4243838576169634              2.8898992399351866
H              1.4265862863310084              1.7256141675345378              2.8498368073933498
H              2.017310426786665              3.819359086106236              0.6318089267152689
H              1.542811210212785              4.225731616648342              0.9433835404415538
H              1.3288553901766496              1.25032301374381              -0.3883562003086405
H              0.8563975665048701              1.0980477196645901              0.028964813916043573
H              -1.723230771249986              -0.9190223261447555              -2.2351821348058856
H              -1.6593236576684993              -1.3613466732150823              -1.6634739921971038
H              3.702730100950701              1.7068076834438335              0.6280613603099798
H              4.079197741486771              2.1887840274824337              0.9944263957036206
H              4.0719187092497515              4.323302839108301              2.9779388190781453
H              3.8631351457677794              3.7959529474610973              2.5928671627491684
H              1.4349885067354282              2.4584295421653257              2.7093007749235243
H              1.5234500975006116              1.7834594910632693              2.600811475591735
H              2.0551250342492726              3.983033405372276              0.6337042824978781
H              1.3871343697406757              4.113294187558539              0.9347232284656853
H              1.3573701621412992              1.2224607563328322              -0.45302050725342297
H              1.0913899088835355              1.1487303826055937              0.25471936163029424
H              -1.686132135593967              -1.1228775152876502              -2.331462833658327
H              -1.621535968902204              -1.2692170604023152              -1.6656511676102936
H              3.6072919187962476              1.7175159073939188              1.0004456365876144
H              4.3350023172409085              1.952698178451223              1.2945765633459339
H              4.013313239203121              4.347964364928267              3.050974550953638
H              3.8700417272927625              3.9212990771336464              2.485084747530776
H              1.205005497126282              2.3099730769764397              2.400478448963526
H              1.81377554514002              1.9468156199971478              2.4426751445860297
H              1.901927928208674              3.868356689748037              0.5063987040928782
H              1.4002378095619277              4.020644271280644              1.0479506729381534
H              1.2254750644729684              0.7553681363526339              -0.13433932919708985
H              1.2232449337897526              1.4735130674018908              -0.23409908268059157
H              -1.7205450905583548              -1.129011783784808              -2.528959670350856
H              -1.513480548399915              -1.0247812741128108              -1.724684424031713
H              3.944192993342384              1.479409027888934              0.8291474472488374
H              4.26286446591543              2.138260493553688              0.9711266239662849
H              3.9974232465155675              4.733857036298248              2.8053502796490712
H              3.6563318685667903              4.177252374756298              2.6203723564249386
H              1.3030268790353574              2.490398324515316              2.645233177815943
H              1.6258908738247897              1.7302599787278325              2.641570914672066
H              1.8866108420835228              3.59578389159472              0.22635305635165925
H              1.4739116702493686              3.9612277351168825              0.7156219096277305
H              1.0533043847572983              0.8765131306817622              -0.48864871087760575
H              1.0520979042337835              0.8990160646663756              0.27735421615603734
H              -1.7354402805012983              -1.112986432176677              -2.7591691302139476
H              -1.4461572312211786              -1.2372184871618253              -2.020209315442009
H              3.989182525181301              1.542027926769076              0.7095061267259507
H              4.490273557882866              2.1255733945536743              0.7381619209137218
H              3.963633401720123              4.774584012603356              3.0296294881912145
H              3.654681884442719              4.261981527002548              2.5785521892749754
H              1.4789263547418678              1.959903184617349              2.316805785590301
H              1.6738810540139277              2.4080880318379267              2.8725574585721416
H              2.0145235073910333              3.7833988117750867              0.23654065923819062
H              1.5620779371933349              4.247811307086096              0.6285352518823095
