72

H              2.412348879023531              1.5517636767197              0.7693619118046433
H              1.722137239059346              1.7308181888950076              0.5619233641849506
H              0.9404561179774323              -0.8059011593237638              -2.130777727345539
H              0.8567277913754449              -0.09720895186563074              -2.0475135615559132
H              5.357293870638422              2.5971982732114607              1.4234301276730619
H              4.9801563916032              2.0236901328672623              1.1584447158374738
H              3.993572940178048              4.792429716188859              3.142750858322105
H              4.285552606401999              4.350780105507673              2.6257628857564743
H              3.1599808462974965              1.0615650517081396              3.6789145587705123
H              3.279175246100076              1.6688413583291786              3.331197788121593
H              2.8925378538665907              3.972503282597723              0.7948181358713797
H              2.811951370016347              4.479716788594319              0.321742738742891
H              2.211072422077501              1.3916171849113397              1.0362824621958218
H              1.5680319498851225              1.65283618057177              0.8701799274489486
H              0.7683926356656314              -0.6536697016105042              -1.639616114815683
H              0.8227705883270516              -0.025859053245093855              -1.985882289544047
H              5.474840741106687              2.6428473984292764              1.4420730455261912
H              4.9743812298358545              2.0540794529258735              1.283815341500595
H              4.27543778204888              4.635264835870235              3.21547539795409
H              4.501266280169351              4.235869105858832              2.699129633940035
H              3.4468488250977787              1.342845378423507              3.638983197300088
H              3.2754936651025934              1.7977073149555824              3.1704886648436834
H              3.059678964582605              3.8864104744322683              0.4549779296783437
H              2.865091197487057              4.54370801216898              0.6456937776241202
H              2.029526221007371              1.337118207793791              1.0730762155178506
H              1.9037027471666979              2.1037727825977686              0.8617244305321622
H              0.4747877450178424              -0.7956114897274736              -1.5686510117899017
H              0.5047711358535734              -0.03783984058036547              -1.8555884652234333
H              5.087098250275511              2.657125835722871              1.0603414897822443
H              5.068742993815242              1.899074933021761              1.1525387888843324
H              3.9388852895320863              4.542763936186121              3.216947237531262
H              4.558671886424245              4.269970804125923              2.8414925763115417
H              3.550075611128643              1.2790221905756762              3.510987082703658
H              2.9958444195802825              1.7127416456096562              3.320626812651746
H              3.1984165461656135              3.8778168175115564              0.5152000668647939
H              2.890321618197868              4.52319688238389              0.5178125484329351
H              2.1831553217842083              1.2285634208353577              1.044195367775982
H              1.7381809894936613              1.8424775407138798              0.8659009971601818
H              0.6141248871920942              -0.7639257583664799              -1.6227251605646895
H              0.2952759212998969              -0.19143729731581194              -1.8616931624227746
H              5.151094452540233              2.410319240307029              1.4712620331960276
H              5.1716940125427255              1.7131323051997038              1.2223214659904278
H              3.934360218076393              4.747555600225745              3.3878701793345307
H              4.295492024409435              4.376145119345497              2.833064381654613
H              3.089561493706558              1.229927354122817              3.2746290605726913
H              3.070163744344194              1.8892953696079682              3.45467666548808
H              3.036784494923258              4.155582359427359              0.7500688636112294
H              2.769846491721355              4.592366116616782              0.20182794917574956
H              2.4825943811874844              1.4999206638743972              0.8754876209826246
H              1.7500667632385047              1.7338167995953142              0.9998878735117134
H              0.8313799006180016              -0.682578952290325              -1.845645227424111
H              0.1379314009831717              -0.2594867910785048              -1.8280576046360086
H              5.376313083062456              2.448848040344728              1.0361883035606145
H              5.209623870656124              1.8847114518959014              1.57948157672561
H              3.832901426744333              4.784736958896077              3.0541840116937955
H              4.4506156867984155              4.739339016650221              2.7093061789398005
H              3.4978001042842415              1.6619909689879517              2.9854530954101755
H              2.8928334726564975              2.026788987963394              3.321987005164065
H              2.9285724966833557              4.210051421509426              0.6718207864965168
H              2.812761407672204              4.798302432962123              0.20002889459241463
H              2.3370546496114675              1.648499368774964              0.8331567323334425
H              1.7083720944313878              1.49900502295055              0.47324122112143463
H              0.5961939318341265              -0.7386605733880462              -2.207169713185009
H              0.4105954810022418              -0.014311685016428228              -2.01466898982164
H              5.380484936202884              2.5393500104894104              1.2001722599081874
H              5.054734089868322              1.9315162425981307              1.088629994006182
H              3.6939455055118224              5.0602232240722715              2.9895447899768643
H              4.213899610915694              4.560220491252504              2.815431516428974
H              3.349886227632634              1.2765359314574785              3.001704467945457
H              3.311127320265816              1.833948686828497              3.4669498803616507
H              2.7627594556584856              3.9780145930538127              0.5568164308050179
H              2.7152500605490313              4.677264112701732              0.35062927425646034
