72

H              2.037053307408239              1.8553896865580237              0.2137866721205476
H              1.82760751333963              1.3614202636831398              0.7216752974835023
H              -0.7883446331075217              0.05061230061953265              -2.1158761746864805
H              -0.15846082145231277              0.24277810503469144              -2.6163792157973527
H              4.696613523214679              2.054722167540236              0.6773133762861113
H              4.420815132432145              2.6951731781336443              0.5980700141081847
H              3.9263579107411526              4.287303003486017              2.6718078712442557
H              3.9358409937480574              4.6500743440154055              3.3744119448742396
H              2.955146579218869              1.3250334053472874              2.8604832892386507
H              2.7158234110593953              1.9926464590676998              3.101469710837509
H              2.8675363095815753              4.341880204521156              0.012099662394702287
H              2.3578614474846176              4.362316993962277              0.5816081436105506
H              1.8222739942840025              2.0019365180953588              0.36141412997796424
H              1.9728894943248505              1.4759809864960804              0.8537016896260053
H              -0.5699954643794719              0.1316150497893269              -1.9142042468973137
H              0.02500207285625037              0.1547175187773469              -2.320704615931064
H              4.625165151722719              2.0431018876357863              0.7154610372516097
H              4.655750672147012              2.5692823308849913              0.1861294359085913
H              4.295080477214392              4.300123634072898              2.737078536761617
H              4.075523530266751              4.262068815123153              3.436699483862109
H              2.8804826238503427              1.1513332563236498              3.1855603865441493
H              2.8989476958930047              1.8532555215709439              3.2730778392539834
H              2.6318740301180354              4.601729736642618              0.09546192405315795
H              2.5846599610840935              4.220018628593329              0.7261415418972477
H              2.0622420212681756              1.770732764529712              0.4095749252440759
H              1.7192858858141846              1.7426669311387644              1.0725034171721952
H              -0.7930314677774838              0.02094859929590616              -1.6998506884935303
H              -0.07984316779516974              0.11478939548327032              -1.9565786921046942
H              4.459313432910465              1.8812379355503195              0.6270782074448402
H              4.59783804244227              2.542528023432184              0.46515680353796873
H              4.184551079834896              4.0931793202551665              2.8871032868277346
H              4.0149020366786              4.387574802701994              3.5399964823474783
H              2.589495826201698              1.4013353414700112              3.3437670825397015
H              3.118913999940391              2.035485819419027              3.3791061944022736
H              2.61665941175338              4.481101497232405              0.07093669552685068
H              2.6174744988661724              4.081393938980526              0.6510751156389756
H              1.9664210350435172              2.0927928774605142              0.15842528967024183
H              1.6182970652373385              1.9737855504727966              0.743230003470602
H              -1.1402742011504097              -0.21598301130627326              -2.119969568801157
H              -0.4621250206310149              0.007697997120915632              -2.1990053939751104
H              4.831153662174821              1.9941908656100442              1.0439816693125854
H              4.681401765449937              2.330657481480711              0.34703318248280046
H              3.717605637123614              4.441004486613961              2.7465788897696743
H              4.0313524987868              4.467204598952592              3.3919591962008386
H              2.453437824611029              1.4398092034105323              3.297705561125448
H              3.022185966053607              1.8615389627600927              3.523418568666163
H              2.927767143140462              4.344947593901962              0.12940187705726056
H              2.268688804208054              4.310414399235431              0.5316238247405795
H              2.0646470766928604              2.172257858006676              0.0960305987432955
H              1.7679420802496246              1.5632197841240756              0.3660512436060568
H              -1.0050639155564944              -0.21342782555808384              -2.131300704050084
H              -0.40206907419544513              0.2550267057831027              -2.4068641017687114
H              4.325131480017557              2.0295120999018974              0.9348012374103106
H              4.221770131086285              2.417436719995243              0.3909531218304165
H              3.6839739877394653              4.673213244821274              2.653575470214565
H              3.9320075062933775              4.394876825642567              3.2419520854592587
H              2.4144468504405308              1.6584595137821              3.465462713218379
H              3.099696801129833              1.4166247187842997              3.531895984009351
H              2.604103905466544              4.494241567851147              0.11588809045627078
H              2.270664137188899              4.221950345636996              0.6922145860488959
H              2.0385616402814843              1.9485904157877916              0.1920681935077496
H              1.512255470762209              1.5923281630755473              0.6430969961702702
H              -0.8571281848528977              -0.08077927172541748              -2.0354907978180417
H              -0.302629960535739              0.15798248950394403              -2.553993108101043
H              4.581674592680451              2.028738885616424              0.9028638508924983
H              4.340695563047457              2.587077616938758              0.612409527822751
H              3.8225821064895142              4.719542362867556              2.5104321907418528
H              4.121735900265256              4.560493600048762              3.146333512596279
H              2.5859317263741537              1.3072730491036613              3.212426897280015
H              3.1702527185304636              1.7065264055796283              3.263966710410935
H              2.7219142741790034              4.626784461314953              0.1566342378074555
H              2.3509338506482926              4.740843975891501              0.765856270097836
