72

H              1.0629966387352272              1.093275585702046              -0.44382856855914565
H              1.4664154177261903              1.1556469754179879              0.15250168082501558
H              -1.6045305630739413              -1.3764096578710778              -2.2577459442881613
H              -1.9059030331367959              -1.5936695006161854              -1.510505036408238
H              3.322320433144528              1.4879451649995479              1.0708582344320574
H              4.013227825079077              1.871920338138622              1.0334515491310006
H              4.046449976877502              4.498566383527809              2.6711469278495263
H              3.967000903092523              3.808614860418115              2.646182363618986
H              1.3965206995245714              2.3690628559893065              2.4570206002784643
H              1.982387726337576              1.9434621943585635              2.5019155698839777
H              2.1702220264981658              3.8329898082562606              0.6732203929717333
H              1.522745678130795              4.097716273867392              0.8193860408272262
H              0.9856006604960829              0.825997328900475              -0.6708201744228998
H              1.2471324960886372              1.1954041389877699              0.035783446094664245
H              -1.8011294575461403              -1.5140654443089938              -2.5774414815624893
H              -1.9525567378129425              -1.5862973769092579              -1.7616129764629986
H              3.9235631521878385              1.3196828132185292              0.7411185820401329
H              4.294842906205306              1.8537381329577332              1.278552072476349
H              3.8374912957107448              4.69935623499476              2.55771488663005
H              3.5866633343371244              4.11156214100799              2.893815609829409
H              1.0820282709704623              2.312498476367062              2.6062348549821555
H              1.6500013233848672              1.916541731123438              2.495117770728101
H              2.226626518204476              3.979107380490976              0.39759231840908804
H              1.5053039077422818              3.987539035575522              0.532289636936424
H              0.6339815221575781              0.6259374926517813              -0.3375866351267871
H              1.286621983147085              0.9309394403433783              -0.12514371689772802
H              -1.706781413365367              -1.444774248928616              -2.7978207767285443
H              -1.5170503477045605              -1.5629040997584027              -2.105168392599398
H              3.8718002549206223              1.2811856561758264              0.9200791993592167
H              4.3845472156472685              1.8782219620682137              0.8728479931105694
H              4.038764578418798              4.754174302056377              2.7929699733076245
H              3.51102142156569              4.2533250043220825              2.769872480087021
H              1.1112614906138787              2.2803665758021223              2.712025742220964
H              1.9014143180578553              2.096980377599596              2.4849154745769546
H              1.8487268498790042              3.843795482503962              0.10209366171287242
H              1.7660784802826006              4.135901515794591              0.7254648925323514
H              0.6980902283097877              0.6549266937217184              -0.42130545370850686
H              1.0963571769460647              1.0848435553990796              -0.03240073922264462
H              -1.3695179677590135              -1.1698993304381216              -2.467546070770066
H              -1.2383872862328804              -1.6429733800638426              -1.7686886169954419
H              3.8697987252211528              1.4374599701953301              0.7476491994124855
H              3.9410286839154414              2.203548492615806              0.8295749526993009
H              4.356034058054235              4.488266317217858              2.526055746902078
H              3.8074088830257447              4.176207268591734              2.959456828106394
H              1.2647016340327932              2.4053848529004123              2.9120080048050707
H              1.6596941076036915              1.8881516794946596              2.687301030303796
H              2.140892087245078              3.9429941740618686              0.30069076574392917
H              1.7072504924304577              4.153272420670956              0.811726542393337
H              1.2921785723634382              0.7281207369829926              -0.589503995099168
H              0.9906796020241176              0.7150891637502411              0.0018159310031612451
H              -1.4966788178940669              -1.2634701429202906              -2.2193590017057865
H              -1.463843193864436              -1.828302399496637              -1.8209755052306529
H              4.010947310048831              1.529022434306922              0.7806342699712466
H              4.2810618576896              2.130404822520046              1.1834207142125042
H              4.337599890280423              4.274461302071809              2.545900716895956
H              3.850466621492467              3.9857864094011366              3.0518537486415784
H              1.1781548451340547              2.354079712543578              2.7721949901316125
H              1.6920379155416683              1.9047016286190397              2.6288392200902004
H              2.4636545627131063              4.128695857428088              0.6539775789183871
H              1.708253098904333              4.096422062196081              0.770436554854627
H              0.8059540407576881              0.7649768396671577              -0.3808532937366341
H              1.236108278093061              1.2382823797219902              0.012938804936787176
H              -1.5617649536848395              -1.4639431633315132              -2.2466674339133617
H              -1.5273137138895094              -1.5396495600020617              -1.5743214443101519
H              3.6660106292498424              1.4828671259303938              0.8208226802905176
H              4.191528269273834              1.9442530731362448              1.0284001022663796
H              4.165256184876385              4.3124374554473395              2.681018747717987
H              3.77759878151872              3.6731683997423636              2.819847589203776
H              1.406682309676549              2.1917998053753367              3.0016492305085847
H              1.4382534100003928              2.091161393955163              2.1962250614550762
H              2.154750648289526              4.114553547891404              0.5037008046668171
H              1.6006984690011672              4.024726428686862              0.9638017022825813
