72

H              2.2249623183474565              1.7162748104019874              0.20538419961079474
H              1.7314326780363              1.7246180305065362              0.7827616070636592
H              -0.658479111284144              0.11483042629539261              -1.8453475235911743
H              -0.20377054093042005              0.24958360255482195              -2.570195652440831
H              4.398069296358671              1.959958080909524              0.9384486866022346
H              4.333359884582016              2.618169790706334              0.6706633534383808
H              4.165509217079407              4.361098982100287              2.7220019294533664
H              3.8884438909081083              4.260179162791767              3.447514045594082
H              2.9582521366941155              1.0816887017768975              3.1170693444659636
H              2.9055507552229893              1.7914023899812692              3.4087911973969063
H              2.574204331516942              4.499240458530057              -0.055412785641343595
H              2.5248232308684964              4.448183990675394              0.7076959740103328
H              1.8148759550473654              2.1076237724841236              0.37131769418045146
H              1.9463868910359672              1.6334787844090024              0.9693221813060215
H              -0.4032296454403002              0.09115566965480493              -1.8411926248188373
H              0.03952846597853744              0.4389408534852022              -2.2110530420296945
H              4.946065035142337              2.219651196295551              0.7371880571307593
H              4.399888413474474              2.5179874528519623              0.3673678210458744
H              4.273874469945509              4.599091797925509              2.693595771759379
H              4.018473729675781              4.148280767353485              3.195998005214374
H              2.9535640590026713              1.1420494559970253              3.336769663929851
H              3.020935684015745              1.8273791534437467              3.2846848377408353
H              2.903327730744631              4.394325185607821              0.02023684114936584
H              2.68916330476648              4.49287371994853              0.721766346514441
H              2.1653968988896612              1.9397244775717442              0.4938978765026493
H              1.491979473087639              1.731638076825514              0.723259872489666
H              -0.7464945177902887              0.04016826620127196              -2.1198478490537487
H              -0.0789866417687604              0.1899069496646296              -2.044312743058122
H              4.533156610658651              2.0532048368333875              0.7873710319076019
H              4.636095078259598              2.5572276965900316              0.30579111900585787
H              3.912853119414664              4.267355642261257              2.9510296438393375
H              4.038574550731095              4.5244426248958876              3.581835580458976
H              2.7750401877065496              1.6333458023621243              3.0404305137120358
H              3.3530854705686677              2.026075237754024              3.3710517354743708
H              2.890709647956908              4.559149058646804              -0.06345566911643914
H              2.625096025207582              4.218130856444583              0.47728547316389464
H              2.2761804334789444              1.9592515695062471              0.2038735206111654
H              1.8248659105721854              1.8184664132307244              0.6895656740213038
H              -0.7532695716961875              -0.38879057323358357              -2.105114132965663
H              -0.1299480475773454              0.01796431476313064              -2.3014717326349348
H              4.526856966444648              2.0620149685671              1.2056934442561078
H              4.598962848172226              2.4747942725584635              0.5298153489294543
H              3.927874167334604              4.41270599775727              2.814784817639104
H              3.983895519128369              4.495210221450168              3.504623716653407
H              2.6478396964645565              1.374317290880362              3.3901117674407435
H              2.8723597027005185              2.089449526631778              3.2578845809437715
H              2.8893008411531227              4.625994346367587              0.0973151469056592
H              2.501320130155255              4.060839449665803              0.4476991747010977
H              2.0749665301680515              1.997053810784476              0.16554936156233863
H              1.9921601734815597              1.511140993439714              0.7123711202925954
H              -0.8530936502875274              -0.13742701592800463              -1.9719707128980755
H              -0.3113516459957533              0.07551571422389847              -2.4295620467560983
H              4.7839947067396915              2.0141580476766756              0.8771418742494439
H              4.525372678925213              2.5225315317088435              0.510565976812095
H              4.027651881135212              4.696073170012061              2.6187465869808135
H              4.043841739852776              4.50053582132593              3.2840392244416723
H              2.4405649416814286              1.5617512150898492              3.3961976944478907
H              3.195433447698391              1.7367155908079595              3.366090785883446
H              2.7487840746140306              4.516868869972423              0.21020874140685483
H              2.2638822083656427              4.318269685096829              0.6791748572951359
H              2.047041439393551              2.159887276874128              0.0769899756929356
H              1.892790278229597              1.7570531825129352              0.6986527108635676
H              -0.9706570862368137              -0.04736088596400341              -1.9743838003973004
H              -0.4154168164572575              0.15456837055125303              -2.4697666402258283
H              4.69380823591269              1.993872353781537              0.6461960422623462
H              4.444618824158811              2.508506602427995              0.24759576385349527
H              3.870657012745271              4.625422487173964              2.6714916374020947
H              4.174257306426705              4.377718317612319              3.2721162810222704
H              2.5759048551798553              1.468237951279105              3.38467714243052
H              3.2317386892067606              1.57659820561629              3.3239874355083834
H              2.648979929484064              4.573477352253202              0.04959958168834033
H              2.2257037030606197              4.6190900957678425              0.6518039179194776
