72

H              1.5496339548106384              1.0452518764137773              -0.6505604696236921
H              1.3516314643536083              1.2561341029897475              -0.012226212047691837
H              -1.7453230709179366              -0.5565335877562212              -2.433350693418773
H              -1.2753142339288666              -0.9970319490853057              -1.9120142794126036
H              3.985507467902112              1.7505185913686996              0.66901270101107
H              4.253176860098161              2.37913374427418              0.8103026567420508
H              4.187229519418513              4.446934064599192              3.056999660148734
H              3.916062463836371              4.286572138636643              2.4182024857722633
H              1.7032766004400917              2.4190993212712946              2.3384411187799268
H              1.7758337912067326              1.7728445675181448              2.666279672773611
H              1.7133845015990126              3.6847682160397963              0.4256206479997873
H              1.6446355733019014              4.200572917970682              0.8649297576095312
H              1.6158747471194392              1.2514091196302743              -0.45196133079392725
H              0.9365790414677795              1.3110004534906314              -0.13715122874607996
H              -1.4508892667935551              -0.7799140378380031              -2.392671934172938
H              -1.1327249368675343              -0.9061110061557937              -1.761196117090391
H              4.0282396506566736              1.792337762792292              0.4320119939695184
H              4.416268065549469              2.1836193154294765              0.9654452285868026
H              4.166355674634453              4.1315776794927235              3.266235542985558
H              3.6890759141712706              4.0534818367610574              2.7301654337832195
H              1.425164952700507              2.508163281558239              2.4551340479044446
H              1.676652515268974              1.8280107666338141              2.6191728456896786
H              1.879107182534096              3.8755248953036934              0.08954220417704385
H              1.539045355309476              3.846852959849842              0.7577218438196857
H              1.8010312809474582              1.0324633980491582              -0.44270412440965395
H              1.2293454243051365              1.2806070895547355              -0.07817238798895335
H              -1.3829536220038352              -0.9571650076846352              -2.377667652773748
H              -1.028630164477847              -1.0421238269316166              -1.7488089375408291
H              4.162463334859029              1.6114251035939653              0.8607750644490143
H              4.570670193462954              2.1466719419308964              0.9396790039202223
H              4.155609011783469              4.347384926487658              3.1763827417296002
H              3.784027533514207              4.110223810686407              2.6240980113889654
H              1.4384860695037587              2.4296394762780946              2.6625601540060853
H              1.636058964757618              1.731666623181084              3.0352686421925905
H              1.9159374853984488              3.665003759528254              0.1744859717804685
H              1.5446279165399184              3.9131573396844144              0.7229764426891356
H              1.718738043308839              1.0574208473169573              -0.3270381374432736
H              1.069090432623652              1.1484662126661327              -0.15609443814170232
H              -1.7063078420669837              -0.9802245806721293              -2.481694190434814
H              -1.3582403933123468              -1.124991911662653              -1.7654415625774549
H              4.106024568321133              1.533851204147179              0.7415981510916658
H              4.359399629374331              2.2160594153701565              0.6180820744484453
H              3.761178662455144              4.731026142601315              2.9216861909656755
H              3.868291275380691              4.079301065905857              2.553110602425575
H              1.4657662902244182              2.3107182303894267              2.8297883812305225
H              1.5083257867525264              1.7560343717850118              3.2231718162220835
H              2.0160971709475346              3.821663212755452              0.5022728688680247
H              1.3964434467266087              4.141959728619725              0.5236121054741344
H              1.4588880396004882              1.126443716366923              -0.5675066552831136
H              1.2079692229753463              0.9063210053738804              0.11495277008406743
H              -1.8739297600669598              -0.916606690979875              -2.5411538972860157
H              -1.5767274076759936              -1.3517638290464322              -2.078621497878579
H              3.6811099141580517              1.7448273890700596              0.9494973022407913
H              4.242667437927948              2.0835115063379264              1.1166960352526614
H              3.74779961197756              4.52031905066497              3.116066230775695
H              3.8164384795773763              4.216801759080637              2.422528039270179
H              1.3094366398436472              2.1159384707287168              2.4191631337397315
H              1.80157414875803              2.065403782447368              2.9320510156483954
H              1.962428541303367              3.912644701007773              0.6772500299434545
H              1.2507524713926463              4.169102290917115              0.9079095769647584
H              1.322383970497865              0.9156963606513527              -0.67944076752394
H              1.4682298169304784              1.478125529395153              -0.15016993403599374
H              -1.740231897785881              -0.8096800338289348              -2.349909435822175
H              -1.2562512628062172              -1.073090086946914              -2.0269035985213844
H              3.824992342384838              1.7264782220481911              0.9762930673019887
H              4.114595910281763              2.365563268027894              1.204705191439939
H              4.026528369555845              4.45964820082064              3.0022550000470885
H              3.8711971991988468              4.311926484737387              2.290439618775043
H              1.2153017343837436              2.2906114631122443              2.5428683226098885
H              1.7425953198465358              1.797115089751101              2.756071786717919
H              1.5885966087218377              3.723814899022385              0.5149806667620774
H              1.4990134577924776              3.98196618272085              1.1689897590979443
