72

H              2.5712724802414213              1.6714927140020543              0.4316855268844867
H              1.9489885126518591              1.8105925216612968              0.7901512987831986
H              -0.3562732445338764              -0.5294551013411188              -2.1009889933808163
H              0.09851325225833132              0.1922179279997924              -2.275562372375346
H              4.979037255965133              2.2693416238641606              1.4177541232973874
H              4.577726352578397              2.5066527455084353              0.756191032814554
H              4.137417433492349              4.613907628923872              2.897169029821672
H              3.9226578420792095              4.200096413247012              3.521034089722002
H              2.8014637183198685              1.8387010666202115              3.2887651194095007
H              3.239815028968314              2.2157218394761613              2.828094585701782
H              3.314322060951231              4.4126470420617485              0.033845547313924126
H              2.618938324953509              4.294980896004662              0.35733808546222345
H              2.4184549166923452              1.8637108581326522              0.3474450413187925
H              1.9235678831265572              1.7713846369056254              0.9341379176975184
H              -0.3657637309606872              -0.3118209225524392              -1.8643862907708835
H              -0.022934837286432284              0.12202664123935196              -2.4600648824044273
H              5.2928987875229545              2.269167431006577              1.114207920807278
H              4.898601265435995              2.418948358358299              0.4684861061591023
H              4.265813591287935              4.910988988985061              2.901368355902787
H              4.222851474996645              4.147455127779584              3.0788277876652637
H              2.77377852195479              1.7993180767000876              3.5301071447435364
H              3.3236604396403395              1.7867753073656698              2.924920271793762
H              2.987084179016279              4.535577546322155              0.1698091545929957
H              2.503293334277194              4.567997733767462              0.7539048559105421
H              2.376113297619746              1.8780058842175265              0.3216530452889065
H              1.9362638166031572              1.9720421113975488              0.9078064051551
H              -0.4581697792678897              -0.09039652785241124              -1.765138347220592
H              -0.15958613453360196              0.20080441223828355              -2.3269101932215674
H              5.039086865308409              2.049465785202249              0.823169713027965
H              4.612065844775781              2.5565413772147156              0.40653441407170177
H              4.156817849087823              4.706182257300618              2.9634756311264607
H              4.100371787068951              4.015113157223277              3.2362456010984713
H              2.9597048449420793              1.6837956191589463              3.476922878052269
H              3.427788229028458              1.9277281622556557              3.075364192334746
H              2.7182485908302714              4.436447421276421              -0.00407344217468728
H              2.4689612316643763              4.632541988255767              0.6870054698704161
H              2.3244398767268937              1.8510502755589895              0.3403927612615013
H              1.8220917509788455              2.1066425237257285              0.8692501730450727
H              -0.305843747988367              -0.05627631514396061              -1.8695210851689312
H              -0.028439258172564146              0.28032476653102656              -2.468845997264619
H              4.962880603442743              2.2433778864564444              1.2554130901083909
H              4.533553152487746              2.4185419211580688              0.7511162151806959
H              4.3142691026548805              4.585076711230365              2.9881446119531767
H              3.8905109223420875              3.922073707111139              3.08545318649857
H              3.284941567564594              1.1596465696955074              3.1743356215791763
H              3.200241992844576              1.88782209902968              3.4036564868258266
H              2.9252586185878817              4.268952609164521              0.1674917614659142
H              2.5299487934519287              4.725349555786701              0.5582029750531446
H              2.1659004473066017              2.016898555835689              0.409807533284425
H              1.8899909176334193              1.7337406346587731              1.025256718270022
H              0.07779362734940778              -0.01796191395919006              -1.7647626600657924
H              0.22981109068335306              0.6022399335291088              -2.173889574133054
H              5.066806376759586              2.3661209756089767              0.9456080285818482
H              4.385141735681808              2.4531112298117144              0.5543011908714366
H              4.375784660541354              4.584330679912322              3.032968299938596
H              3.96355240823698              3.9327877439357186              2.9474450496331195
H              3.284273062666193              1.2724437560432982              3.37514212006278
H              3.296709744784151              2.0059163713891457              3.203640587428561
H              2.9328027308486866              4.339555519441653              0.08323224047803851
H              2.851625528943685              4.373403967849827              0.8210102430229679
H              2.2160049211838975              1.8994596163273796              0.6987778557424703
H              1.526299399432501              1.9975692668007912              0.797354493072883
H              -0.2565001539590967              -0.16693552322801475              -1.8999130873095111
H              0.24115212223582513              0.32311203643612213              -2.0810081402898377
H              5.050700266157334              2.3054762345763464              1.1718332594691492
H              4.781082508080595              2.465826524576787              0.46038414877558054
H              4.274630835084497              4.603062782483774              2.878315558421413
H              4.027639968154105              4.167405207604835              3.427260630897287
H              3.2703910052258296              1.518919182329974              3.1185173296376436
H              3.4167755860443556              2.316963265527497              3.1326534488324103
H              3.104610079534276              4.522431377554755              -0.014204128782228981
H              2.8898170875856195              4.5380139263200086              0.7146019142889093
