72

H              2.3757655676292755              1.7328297795716319              1.0227943006348075
H              1.7544803593844052              1.5799048234687008              0.6408519422970416
H              0.9565005400435121              -0.6681538949461652              -1.8463874630966248
H              0.814526974446441              0.032602637892931156              -1.858683441397412
H              5.205298377653751              2.4866641923804735              1.1608598976932474
H              4.878387131783356              1.9338151008697824              0.8648066154495533
H              4.0247909631435705              4.47748212573022              3.2420082136125683
H              4.285899675688215              4.450485116752022              2.5426333708482662
H              3.532680438167763              1.2561758002360552              3.517245991895511
H              3.13249437370098              1.851940120568352              3.4029689157558125
H              2.5145809564239587              3.9572472769629163              0.6360661728549856
H              2.755678313979282              4.576142216307798              0.4161509975477357
H              2.021679313715192              1.5363468186957976              0.9465535460064902
H              1.518624986571774              1.982694258476892              0.753461862172265
H              0.7242030213539837              -0.6973750982389904              -1.6649198119754804
H              0.8703136560908401              -0.02212327790022027              -1.900005037688058
H              5.123181080914505              2.53720937424667              1.3455259498717567
H              4.893882309648808              1.8309387468613396              1.3019319539549463
H              4.035375666122144              4.765134580485725              3.2368518341486188
H              4.410458001298696              4.301170733521156              2.805713426779474
H              3.6260640339782357              1.1860474252277518              3.6488132612523594
H              3.258412319185203              1.6591364740756729              3.383319027409871
H              2.9385222655882854              3.933391884645483              0.4781492260750918
H              2.9463367748606615              4.652591129834484              0.3502945394283302
H              2.225372178721225              1.1695966973879037              0.925974217926632
H              1.7313085153262469              1.8047900848179292              0.9216113203161694
H              0.8626533197259442              -0.8204721116609894              -1.7950173430650955
H              0.6025380080242494              -0.08281300556261262              -1.7773670087935736
H              5.103541455924265              2.54596268345127              1.2024741805867887
H              4.854330568242              1.9933878733089536              1.6159250592866923
H              3.999927936623343              4.888593907324663              3.188400171011545
H              4.532508229587847              4.3659488241648985              2.966016658587067
H              3.4334511216460526              1.2016352333322229              3.489939960628616
H              2.9417702188244133              1.6979642574968963              3.300565526767379
H              3.332274537894998              3.8792967037156423              0.42690810814358815
H              2.9889488498634265              4.510535909314459              0.3734105071792154
H              2.1143713415110956              1.4818748420165708              1.3116033681178767
H              1.7302543632311604              1.6910838298165967              0.7149202856737746
H              0.7985856309436965              -0.842703370962023              -1.61973985214744
H              0.40598970928898664              -0.28727652189153724              -1.7801408376405494
H              5.350474616747709              2.563890031037507              1.2568527053734833
H              5.296638529497565              1.8693563200802983              1.1327343958738179
H              3.9993484416136864              4.87761437496103              3.29546447498619
H              4.507490443921708              4.590621843134849              2.755908046333403
H              3.1653295972386855              1.4523483227078327              3.1834115962303464
H              3.00010970702339              1.9989031728460243              3.5175374533631145
H              3.186935857118036              4.067107113047469              0.7571434302049044
H              2.83605647279596              4.699143782971332              0.47650156427765766
H              2.532910404777499              1.326316021527966              0.7078963257397836
H              1.9707221414944647              1.8113252553742103              0.9554081006832679
H              0.6804938588144379              -0.9250533258446488              -1.909666603481377
H              0.10144922378464358              -0.4026413539823222              -1.8687139842880531
H              5.102631466803942              2.5332189416942392              1.0721177648054474
H              5.121230287195055              1.8605015203362447              1.4425793441249204
H              3.7204583443375596              4.711018903965394              3.115360858733369
H              4.421131809608423              4.651385042971217              2.9597921901450333
H              3.3214236623850413              1.6079988669177852              3.219037790645246
H              2.8684621292086394              2.2270947214918033              3.2977159976067782
H              3.007674004200014              4.092355275568576              0.6265006649775217
H              2.6317329382234376              4.429077728329312              0.05968930750210144
H              2.630832461254668              1.5311926456258043              0.8737966766238592
H              1.9247930801254833              1.6015767698342147              0.6886504779344359
H              0.6366451979869958              -0.8676871128882817              -2.1959259151802106
H              0.3538070657015131              -0.15122512321424042              -2.117609447557678
H              5.19067580328212              2.586416332875591              1.3041721011220937
H              5.142033134437243              1.9289048230802612              1.3631229834528034
H              3.707890068559197              4.756643979040345              2.9318717136691412
H              4.457805169576401              4.62600761812241              2.776770687001031
H              3.1216311434051223              1.272492982836263              3.0385003284248326
H              3.2477191730189716              1.742155300618867              3.5412023956617755
H              2.6362891308789              3.996726783584987              0.7604403907736085
H              2.615044177365724              4.476842687342167              0.19483712470286682
