72

H              1.702479808238947              2.058724420684718              0.3687198895840869
H              1.8340177697806228              1.3204723575117323              0.5514751416281725
H              -0.8184188660986961              -0.10403621728081512              -2.2035529535218052
H              -0.10211048339453004              0.12141228365840286              -2.3253616929640244
H              4.729923489114728              2.0317372574619954              0.5632963375661078
H              4.5377059125055625              2.640400807125594              0.28026151347702694
H              3.826720713640639              4.440073942254287              2.6247913588149516
H              4.129468906731971              4.705898177707469              3.1546228100048306
H              2.6684101193644563              1.349038087610303              3.0592771139362207
H              2.8524279843044966              2.11160420768238              3.1311452735534413
H              2.8453419897682886              4.474509319305398              0.27783868580906274
H              2.2858839671080653              4.237925146355433              0.6244638332287588
H              2.008634287367992              1.7142014406416728              0.21696191375413085
H              1.6567510653194595              1.4531803166685984              0.7732995582332642
H              -1.0353213387096778              0.017709676842549437              -2.10037506502453
H              -0.3676653141048669              -0.244240479146442              -2.3408659292962097
H              4.350418512343305              1.894483894832926              0.5243010386776085
H              4.7635241069787755              2.495069324318117              0.6777983824010398
H              3.861999285308129              4.035037984800166              3.0325070858920795
H              4.10220217889343              4.635346868033065              3.324733707840205
H              2.5545556343913223              1.4552630313445816              2.876277812698872
H              2.8583808868512084              2.056202499544403              3.25750961618471
H              2.5370227866185533              4.581984492265649              0.22646178296718011
H              2.2598716216425907              4.014699866436825              0.6193005652211375
H              1.6956683638614056              1.9603799711755303              0.26649976226115013
H              2.111166701395756              1.5415891370847454              0.7599710473950656
H              -0.9375222302796877              -0.0945760608734602              -1.7217205349949687
H              -0.3891846059687527              0.034424961738775954              -2.345821985542779
H              4.667609206043163              1.8335659975738798              0.701612377505082
H              4.558770525179877              2.462992239102401              0.44562125704386485
H              4.139342052618074              4.241599120414086              2.6011494485803377
H              3.9719896265831123              4.252271194990975              3.295681154140985
H              2.460577662572482              1.1215742409161886              3.440523030256491
H              2.6019720463852023              1.7813241817409722              3.388824705022859
H              2.4574872030639097              4.366475701080397              0.2041678815224096
H              2.300379983242447              4.09994954002106              0.8901263418591908
H              1.7543190021866726              2.0077335551558684              0.23879436517055316
H              1.5130357926019422              1.6169998073783598              0.8548078486525696
H              -1.2036508249433984              0.1464004680202585              -1.8333600282469231
H              -0.4917883668144232              0.19947647292212525              -2.139793550477025
H              4.543731880290746              1.855907441023969              0.6123855550403087
H              4.4212742825021785              2.4166920607597215              0.2421375521787135
H              3.8331721599210433              4.421274869359748              2.5713880194684413
H              4.051595318100921              4.299286512479842              3.252573574278965
H              2.477487847659173              1.6385504796748367              3.3589403452419635
H              3.1091831047623932              1.3232021811640384              3.537398442356669
H              2.470897868601223              4.3098667851494445              0.18601498086626916
H              2.341840990951252              4.551234440320976              0.8624772806906499
H              1.919891566924109              1.9233505303873333              0.17437123834381668
H              1.2636969081987437              1.8436076902026985              0.6133386585065707
H              -1.0959963948357905              -0.13426111210641462              -2.205465952513113
H              -0.45303173533100044              0.22433240721676984              -2.2516299383910887
H              4.342682186231287              1.9599908326314004              0.9751160932362024
H              4.323363138564777              2.4503959112517686              0.43619586306682895
H              3.4687959050822097              4.359712011806264              2.706570115721509
H              3.951580368519723              4.497853155410004              3.2715823115229363
H              2.3764502199586715              1.555272538671155              3.1192077305306225
H              3.062844030320256              1.6295354371168356              3.353434124285652
H              2.750151212593618              4.350817797898227              0.04615747694066128
H              2.373502908325312              4.477573320348404              0.6547662298175161
H              1.9215221375987055              1.844864355975595              0.2998987737937494
H              1.476197448143151              1.366742814582471              0.47914237492701156
H              -0.7669139343740747              -0.11020340531835915              -2.30246645394975
H              -0.20384946415257046              0.18957808497802636              -2.5140693274439676
H              4.519601119912998              2.0308492667743816              1.1470871386597687
H              4.369019328436453              2.6143969781964307              0.632488645948514
H              3.740272659215114              4.471526985351131              2.5679493807455405
H              3.858122708511136              4.682172130740354              3.2487442921323817
H              2.669867985476607              1.3028561177758151              2.8816062200557355
H              2.767164004233414              1.9456818895817605              3.3092122538530804
H              2.8845937804767283              4.315606382078075              0.15783084070103184
H              2.368257188522594              4.2698129296817955              0.720796931080102
