72

H              1.378863628980131              0.8467744734374593              -0.4999693009971751
H              0.9686092334404884              1.0523484162936594              0.1310850626303139
H              -1.2621657082853766              -2.4086473672158535              -1.979318590333175
H              -1.767804761732777              -2.734124584678756              -2.256219554199104
H              3.9479211556540528              1.4917144428488494              1.5007476015306733
H              4.461322676056269              1.458226392870985              0.98305090561674
H              4.059943028020422              3.681638765121652              3.391631623593095
H              4.384092883259828              4.01750799395482              2.853645292874047
H              1.5264603948211652              2.1113997279893795              2.6601564521797605
H              1.1886288640074916              2.4683255312309482              2.1268895816384856
H              2.960654913677362              3.883994396250778              0.1393705263158582
H              2.3004577262278785              3.5432102660900444              0.09670601814045361
H              1.2603855368423569              0.44756876707719384              -0.15149060643880954
H              0.942642685519485              1.1066271966300267              -0.12439953479593159
H              -0.9159593636385603              -2.4510133881436844              -2.0881425830934415
H              -1.653379679897179              -2.7405831442867434              -2.309000534639028
H              4.012782499780548              1.4044466107416063              1.5173274980761835
H              4.648218823404908              1.6215071883116166              1.1144583571154305
H              3.8887713719576045              3.35395219758089              3.35554979390345
H              4.046108112906798              3.943454953600946              2.9200149025518587
H              1.486359478218443              2.174580231269532              2.297624115486235
H              0.7168407696814741              2.361832792613677              2.348491510230743
H              3.0036561786549942              3.6761956024715285              -0.1627737238277143
H              2.4930109380898973              3.618467109425806              0.36084631879608653
H              0.7683801172687089              0.8196366108320108              -0.4497982724051955
H              1.2398221769188253              0.8272938729840129              0.10176919494271328
H              -0.8289238841065865              -2.517710220463158              -2.103091449717879
H              -1.3684104674745021              -2.9347149938602763              -2.4910821877461817
H              3.946025614987496              1.4026398353039842              1.7889557736104604
H              4.454203904694016              1.4344650497390286              1.2823219294836907
H              3.8298809174141453              3.505901281106979              3.2498125958505937
H              4.090560782345487              3.9659342467189633              2.82959570662468
H              1.6832193299579816              2.182359262408885              2.433304817085102
H              1.0245281609245016              2.4018534695092053              2.278941964161985
H              2.931241978089913              3.106024037238276              0.009864528090561028
H              2.4448055348089146              3.554563971394238              0.34421638232332186
H              0.4534664595751316              0.5852287441956889              -0.32324347459461766
H              1.0630768440564833              1.0168303231226627              -0.22689569132582876
H              -0.934683163117345              -2.721899199379709              -2.2632056513474677
H              -1.578198413423282              -2.8490247149422347              -2.4223401999103222
H              3.7335386553029544              1.4588774478797197              1.582991705109349
H              4.271491083768243              1.4914783097466449              1.0545686663962446
H              3.761095338967532              3.9297132425978987              3.297691744545606
H              4.160883475552418              3.8039222853127317              2.700320126330782
H              1.8644680261129032              2.2342375074150422              2.1380305389027887
H              1.184962246057653              2.3294824425737897              2.450160158204664
H              2.899440760483126              3.585963024393779              -0.052768524472898905
H              2.464072267139447              3.5494644314512818              0.5897612693140215
H              0.9461970020397605              0.5824712977926161              -0.27369442682636796
H              0.8188855154623232              1.2655519564867952              0.032823612714902056
H              -1.0053681740010918              -2.6756646243629874              -2.1776413056130934
H              -1.6654626740338954              -3.0483060100114705              -2.3707538563879424
H              3.813390513827415              1.3272897039354263              1.4749201495799793
H              4.464726571101834              1.1457663866538779              1.247030638316048
H              3.882952230734771              3.610569269024498              3.4807039172310623
H              4.319477163680385              3.8824546880086386              2.92276133077551
H              1.5494289991385775              2.0386466680479285              2.254663269315595
H              0.8959665873427699              2.488880749190993              2.489842116950647
H              2.813021552324377              3.9089379963308337              0.16355164655031254
H              2.183342181065466              3.7059071647929116              0.5332800913998288
H              1.3107996936226436              0.8088561199337935              -0.44380092687970873
H              1.1576513108469824              0.8676738230514737              0.2599040589008058
H              -0.9719982728878509              -2.542360131101805              -1.8532733717408647
H              -1.589937006411931              -2.9137152026313684              -2.1410460719877125
H              4.133827590609836              1.0239249679500233              1.6062875974376887
H              4.585181637601277              1.4810952556855874              1.2353234073663184
H              4.1724600197298365              3.694581510899516              3.4611659431262742
H              4.304038542707649              3.875519467649069              2.8108813481284014
H              1.424876523794256              2.15326459920253              2.5150964520703583
H              0.8594652012810418              2.50633258667395              2.3795929397846636
H              2.6191450591797207              4.135914836175509              0.4291891987482856
H              2.167504267420373              3.549304451548467              0.18959015697636786
