72

H              2.676106330105007              1.7723717813970883              0.7691845950973402
H              1.9041793322353495              1.8136347498651453              0.7072127722681126
H              -1.5796160261174983              -1.4774349089941596              -2.1782528083055386
H              -1.156343681256801              -1.5460851050141429              -2.7102433792538694
H              5.0937056581830396              2.1056610049017244              1.149629620696338
H              4.884578141871965              2.418108500675443              0.45321355314854467
H              4.12626880711089              4.710069713579676              3.118036256775496
H              4.595128829148415              4.179286552019685              3.0147039807840743
H              3.5204263091935335              1.4927167089982527              3.4908081966903075
H              3.12430029643603              1.9902445648949825              3.3989572819285714
H              3.1112122774060333              4.1720373480965804              0.9908886994236284
H              2.557814067252602              4.2518894116454735              0.5076338411016862
H              2.6644281752013987              1.8055962898123081              0.6199358508325201
H              2.059418303103611              1.9564045255154696              1.0139573825043868
H              -1.4348973011685673              -1.4796840097186494              -1.962440653890133
H              -1.0697519510647147              -1.6426816635169295              -2.6692499903667035
H              4.811241393932008              2.327121033318178              1.1637300803878712
H              4.906769529487656              2.4756606639453076              0.4331628338024591
H              4.602758578914857              4.518515834796323              3.2432701909862263
H              4.698930385625665              3.8419800841654026              2.994493657112376
H              3.529044880260679              1.5053579227003324              3.247890747258814
H              3.138926070721319              2.10551796897925              3.2365210568117044
H              3.2039604237824304              4.345200381746808              0.8474840905185095
H              2.4870819511003996              4.481035984755597              0.6423103887472978
H              2.266807830309466              1.797215773522796              0.6587506725279971
H              1.8668537626150457              2.2312100322442623              1.1204213227454234
H              -1.696090328572067              -1.544385638822002              -1.6627523696030124
H              -1.4429075623130327              -1.3290875126815267              -2.430310150549211
H              4.837398668128767              2.494724710472546              1.091447827412815
H              4.611476364535401              2.2747559314367067              0.38440126170422395
H              4.6204014255664365              4.52937944744391              2.893793951641795
H              4.859793060043662              3.880882707839051              3.1891248569492294
H              3.302633113800427              1.5818218571560685              3.6246043508936663
H              3.0482305822982143              2.2954427796127206              3.2743473127832137
H              2.8842823256448873              4.60218753591893              1.0682484775361867
H              3.0405943834010127              4.509260621137991              0.3390909423941797
H              2.5103803804050147              1.885395844531562              0.6236024553412566
H              1.7731329049296496              1.7399099726741576              0.8384802578767225
H              -1.9282794109214918              -1.3592221812547325              -1.7852345278518158
H              -1.6511768073721886              -1.3617609230929648              -2.4775707337500386
H              5.1765188359272285              2.2230168791344598              1.2283460531415846
H              4.64521601559346              2.4824308790279828              0.6207772419122902
H              4.645601994684825              4.6157683680475605              2.7207139515059233
H              4.7106933411993              3.9692148373429306              3.0741460022617337
H              3.4479072832616016              1.8736656980584907              3.4618204353423283
H              2.8498221689906567              2.0794018319105563              3.9209816644750783
H              2.7942817450485973              4.578644857113177              0.9195491787551432
H              3.0083588873088996              4.457333045180911              0.18555852106087237
H              2.333914987884922              1.6594686346501655              0.46861876026478483
H              1.872108884548077              1.5467026419888437              1.044310589856493
H              -1.6715793249557003              -1.063913758196183              -1.8779393109202545
H              -1.4054596980471576              -1.3906420097636532              -2.529924986397217
H              5.092910697697192              2.591831225749925              1.3343012605685465
H              4.80791656640782              2.5341065618466514              0.5915588794599002
H              4.505757266053703              4.800843262833236              3.0152760949564645
H              4.756389974786342              4.150840286690803              2.7798255149998465
H              3.6080183214272616              2.037841061701188              3.598280953115024
H              2.852986495054932              2.0832175460001014              3.4440470193428703
H              2.8716187435252403              4.281705129760443              0.980431839783962
H              2.6053020654662924              4.471539834256289              0.3345012450441833
H              2.365327941476485              1.3430493665478858              1.094630260684277
H              2.027666251016355              1.7482142190595296              0.6267901637743347
H              -1.5406892449944223              -1.3049422164450535              -1.943412655859032
H              -1.1028012149143196              -1.5277267138454378              -2.490813423230548
H              4.977522497991067              2.6431029176754093              0.8750718835557446
H              4.658911962681251              2.377389235445956              0.25867124243636597
H              4.219222085433581              4.821341636964783              3.1393709126217217
H              4.674495414894948              4.165908490706674              3.122733313567669
H              3.571160644790038              1.8368197879208201              3.5005876952481367
H              3.01909540681629              2.3729890736234194              3.5324993977618693
H              2.967015229449406              4.462135739558218              0.9580391787125958
H              2.740683483468797              4.597620014419959              0.2965986320199202
