72

H              2.1386382276983813              1.373088009405672              0.8339528520878896
H              1.6460204632784468              1.8473221405105333              0.8996804140152165
H              0.6029387067523065              -1.1850622555252386              -1.9476280434539235
H              -0.05882022335131669              -1.2544418036885117              -1.8500647384222533
H              5.06309552078238              2.0893886639137462              0.8077763906755139
H              5.2267309805256925              2.4871611540646943              1.4553707283182327
H              3.6039592111190166              4.718405939971866              2.6754721381865796
H              4.2772908057259444              4.631932417171408              2.90850780040508
H              2.5763735623868014              2.5145568309580044              3.53387374797756
H              2.7974473759475504              1.9737269786953702              3.943441074726359
H              2.868344926899237              4.5014157735571265              0.5561721494344073
H              2.8727754487053616              3.86297313341157              0.22257784939884337
H              2.2820495267533296              1.3779633802243423              1.1224301623406574
H              1.670551456385474              1.6575418343934052              0.7274746960927374
H              0.40719965240127853              -1.2500465982353408              -1.7587211786557888
H              -0.35663297265854016              -1.3680595308815737              -1.8828694701424422
H              4.972595880726835              2.226771519316625              0.8187735890977188
H              5.046137183931596              2.7619525553939948              1.3821814511077268
H              4.100442840682444              4.408360557407912              2.5017075344214947
H              4.174085144784242              4.726744453727425              3.1506314984413635
H              2.4690231380099035              2.5921639447016678              3.700791064951754
H              2.815839478024813              2.2140423865188645              4.2062753209672685
H              2.695642350603811              4.444116103592051              0.3408372323171339
H              3.0368808140621706              3.796053540515936              0.30390462723374606
H              2.2146637550702297              1.3020009434861206              1.1600244472313594
H              1.5221611419299512              1.2456750700455783              1.0403523248089637
H              0.08234034544447999              -1.2371871741935125              -2.0110075173214903
H              -0.5025957599377818              -0.9287243926087869              -1.7645076483165163
H              4.803082573672783              2.3948501764127537              0.661095156573185
H              5.136105945306282              2.3335878393121994              1.2558868718076484
H              3.9569650401554517              4.603665142184005              2.465472063938553
H              4.103750323326899              4.814658452997198              3.2011766020687036
H              2.33249120485698              2.078041249309936              3.6849803681043936
H              3.017774741404964              2.0495907340897745              4.028976410958651
H              2.6186552761817654              4.424029139424009              0.41111194363909953
H              2.99660155554531              3.8031777638167568              0.48400413071887055
H              2.2364046076056256              1.4878651679783323              1.1595332749102878
H              1.4810607061157586              1.4957122236306448              1.1729071266870765
H              0.2468037277265404              -1.1375377521036945              -1.885190213311825
H              -0.20816193132201882              -0.816074956083821              -1.5132026520894581
H              4.67272804358811              1.9937836238169744              0.5648684871676667
H              5.182243894414748              2.368204923431995              1.065775756983979
H              3.775768776861484              4.459269901805692              2.5999373644560557
H              4.150452641447828              4.79011536123135              3.219396853934897
H              2.3049968676493555              2.335341333961703              3.6983686525715114
H              3.0907565777471273              2.245984860514998              3.719870602709032
H              2.8574470150779114              4.5042116213212635              0.3543087813019389
H              2.883092652245893              3.9017885521830284              0.6362379168390137
H              2.1350501059542872              1.841957895719878              1.1084972170199443
H              1.4818595642619257              1.5483954603970858              0.9884910414788345
H              0.28189873188630893              -1.0280116240878305              -1.8896805101862313
H              -0.40541426173279477              -0.6955377248573548              -1.5304219097419762
H              4.635456085624              1.9733388598070063              0.7935643084464937
H              4.958988640573813              2.2929220162434336              1.4114372285929986
H              3.710420938499551              4.769130481132505              2.52210137629747
H              4.1801371382844215              4.867246815035195              3.0927730901002572
H              2.6901913749214867              2.7045797345536933              3.6218223970062913
H              3.125913416633574              2.0494255213013135              3.6787952654436693
H              2.659737780655539              4.371936950236292              0.314427944355481
H              3.275775678983559              4.027648193288381              0.5466505005346475
H              2.1409360225777676              1.5014583517654259              1.272840494265946
H              1.914651647126294              1.6365312443078777              0.6167717508750991
H              0.398091214045121              -1.0081499750779521              -2.17204574093657
H              -0.23990825910317717              -1.0375607746784778              -1.640140857358249
H              4.797450592039296              1.9657609460848326              0.776824238938433
H              4.784173558780698              2.5099663795738207              1.4072582828899027
H              3.620388136358779              4.837735764900389              2.444285636989899
H              4.108743778244189              4.815932106465768              3.04107388568096
H              3.044737198093362              2.569110974613258              3.6331947967721225
H              2.768281247284925              1.8184824291770487              3.5374072800294853
H              2.788880624932937              4.615299006311859              0.3011311957708379
H              3.098313767935711              3.9080263132030084              0.29890202793779785
