72

H              1.1305644668074968              0.8026387320791472              -0.5827815485133785
H              0.9948670677455107              1.2206764683882423              -0.010557464591309858
H              -1.4581541903766424              -0.9009020936788041              -2.472947893754823
H              -1.0196969132699856              -1.3800162810647003              -1.9788844200963476
H              3.980007617758327              1.697661722169841              0.6432535994830195
H              4.139076849020817              2.2362256877981808              1.2060170145269806
H              4.309668181213071              4.383213905831333              3.0061076306739634
H              3.6489106958439943              4.219533796149081              2.7902520505711847
H              1.242470308785691              2.5138165915008273              2.8240901773771174
H              1.591658558737327              1.8714288244188482              2.702832506251836
H              1.858263579806475              3.7557813049273103              0.267482739087011
H              1.5586681270521061              3.872487856502996              0.9046754420388816
H              1.4697942131169452              0.9245522783934721              -0.5755502164300026
H              0.99572739036891              1.2069615708387358              -0.057283934911328
H              -1.5301866737751288              -0.8980025324127179              -2.2403557588651872
H              -1.1572806367946415              -1.469874578122728              -1.834076688883537
H              4.264469794803499              1.6249572349953174              0.9604231619764276
H              4.351418489076133              2.3902995365623343              0.7985429019340474
H              4.383947814217196              4.552151094561046              2.788175913838287
H              3.9452099126373583              4.009704030613506              2.6243417099054613
H              1.5048412572547063              2.4594814222855197              2.858683472386602
H              1.3833182572864975              1.6868264310092436              2.8597249325199194
H              2.1037779753664867              3.837987640855844              0.5876589295758738
H              1.5184453948573926              4.208195692747057              0.9135871697929483
H              1.3939089404918708              1.2792600522036144              -0.4476753393242906
H              0.8533289280805445              1.1225806343147522              0.03712174559003279
H              -1.6956239691181958              -0.9325491869142488              -2.2634899070349306
H              -1.5979658696395618              -1.3050486125158147              -1.6676127479464924
H              3.7104199407252643              1.6805322124601594              0.6016636809525016
H              4.167991148728941              2.169820469963204              0.9786662843911883
H              4.052240960732378              4.280176329888154              3.0856807318583734
H              3.8449485745359127              3.789439917643872              2.5632032440282564
H              1.4111475328999146              2.511828373837151              2.716560945849319
H              1.548242785532188              1.7538336941496646              2.658809523071846
H              2.01909387095284              3.9528953472970794              0.5461250775495158
H              1.3895034844520453              4.062310345545311              0.9152917885363369
H              1.390191195500025              1.2637059384656202              -0.37621680618661174
H              1.090985920900826              1.1629342543003385              0.23260419309761854
H              -1.6641083046621088              -1.1131100313182518              -2.385436206711581
H              -1.5992616619739              -1.2532656499903387              -1.5397109233482296
H              3.5671445613335644              1.7193037154943625              1.0054629615264168
H              4.30668341639315              1.9603366618171922              1.2268397285065828
H              3.9839752320872375              4.3822260954020535              3.0417531441595744
H              3.9267029606816943              3.9069573885164623              2.445469295956076
H              1.2104032681955526              2.2957578828412304              2.4216082320756414
H              1.834077935794472              1.8999788237076718              2.566899435583124
H              1.9093341363227536              3.8709748784007316              0.544454681492586
H              1.374937680766031              4.069537178764803              1.0092336137231188
H              1.3199561433061302              0.6976310481189854              -0.1336087204091786
H              1.2053710875844623              1.4105839332952965              -0.22618848508689407
H              -1.7780289325050325              -1.1116202854095782              -2.5233809397763096
H              -1.5986425111885103              -1.0756842685582315              -1.7909673998477957
H              3.9387213084142556              1.459220598460237              0.8676931672051875
H              4.2803587920239785              2.1613450137453194              1.034441589883632
H              3.9673681132723027              4.81415110807217              2.7941507327529016
H              3.5947711466350976              4.144040800755986              2.6254597743458983
H              1.3108603007427722              2.4279215127322575              2.6186029455419804
H              1.5924911750952064              1.782935329387986              2.661351828305005
H              1.9677869551798755              3.590571214751868              0.2750095625143038
H              1.4010909827466878              3.9836161584839207              0.7368813359375794
H              1.0019156736494899              0.9001114274239977              -0.5044900653913953
H              1.1147604430334157              0.8791905279343685              0.25567347870170937
H              -1.7641963062788053              -1.122648705363559              -2.738760525123533
H              -1.4318574564160909              -1.180564347748465              -2.1376305568130207
H              3.9941638018726797              1.5769467822003984              0.7443782853660273
H              4.4899855112013425              2.1135749709319245              0.7292105702722881
H              3.9138039785661283              4.776250051652947              3.065054841022575
H              3.680281607874781              4.320558568848305              2.510302719965942
H              1.457877825954945              1.9648855530754767              2.3497858794698727
H              1.6649695637757775              2.3984420194318066              2.779971322329409
H              1.8988160035669315              3.780330491402163              0.2243376953225907
H              1.5745248753484733              4.259757410820942              0.7015958766789367
