72

H              1.369648420465644              0.6293390834691008              -0.5847712370199263
H              1.3633384885484952              0.8253388008717971              0.13515991541031439
H              -1.1938140558497061              -2.641788050453909              -2.0829809286795467
H              -1.9083069573022333              -2.9447947860815415              -2.141112833037072
H              4.046459908656032              1.180383630056025              1.5331471836235473
H              4.744140386142325              1.2788826120803842              1.4149878190863037
H              3.78237768787053              3.5691879619870654              3.2935133222728945
H              4.207484747917955              4.066478844585705              3.016965534848435
H              1.327283903507181              1.8497085429187423              2.291601501785209
H              1.0238910874401572              2.5042469321855108              2.210856392180856
H              2.6955394226019873              4.010694916377536              -0.023053127760898427
H              2.1909248669874475              3.593071511497828              0.31085323371286555
H              1.140899196825517              0.6937992710657178              -0.6310206383766404
H              1.3331583411278163              0.827520037164737              0.09425167881505343
H              -1.3084634532488102              -2.3430801787510456              -2.2070413249522884
H              -1.6434947939280509              -2.8697715130690273              -2.290080540192168
H              3.7907279618495986              1.2520866183564057              1.4340151977736442
H              4.417095014651849              1.287305796778167              1.117212479671534
H              3.715541185561018              3.5963237921814537              3.206154836324282
H              4.037748217516948              4.220696187137657              2.972607680891505
H              1.6267633616034225              2.182558162165925              2.5193244821859877
H              1.0385390205517804              2.4536687813860523              2.453049590568404
H              2.763209540520069              3.5337655217419917              -0.11237134724314624
H              1.9691298127133683              3.5885967040648423              0.08670589079436629
H              0.8075595922865008              0.3908174243956826              -0.4168571214144046
H              1.2544609223068817              0.9475362464250818              -0.018197810654475087
H              -1.1366855467841224              -2.4962134442238955              -2.266897346668463
H              -1.7167663166021527              -2.845683236284396              -2.4786734061176694
H              4.0366721854296035              1.3788527899960012              1.6167418751315972
H              4.528229919870532              1.5266156318988013              1.1202982692067593
H              3.6627302262509605              3.8846350333681787              3.2153667761426528
H              4.254952609990094              4.122919621833103              2.8225463009698326
H              1.7897542090551328              2.254449259722435              2.251799289403846
H              1.1458608858887294              2.3946267769503176              2.6072950039942913
H              2.9686716528244976              3.521057179799751              -0.0598498535515465
H              2.2746723615165414              3.742300148921641              0.1966832178994913
H              0.6932393672508818              0.5593695102457192              -0.6127279271323
H              0.9360534094629263              1.1479399224706175              -0.11526089152946167
H              -0.8200165402314789              -2.5369903910435494              -2.381151667916574
H              -1.5659709887862445              -2.817031838136077              -2.4187171390319833
H              4.168980227484959              1.1455826755803684              1.6074528712145795
H              4.500563780998559              1.5875870667980192              1.0173098662233435
H              3.7895658106788614              3.543090576271856              3.3774330430940367
H              3.9408341396681683              4.077229940137542              2.894048659331115
H              1.5901015194587318              2.3316691794896047              2.663968529154697
H              1.1175963212625286              2.510181527813543              2.1168279951095843
H              2.7265618948304              3.7989248078440006              -0.18374382349904286
H              2.517531789340319              3.494245963524898              0.42576950432641886
H              1.1116928615348096              0.6439941181076548              -0.4544605118421551
H              1.199009996281993              1.2859348180618568              -0.12484616320296044
H              -0.6645238260623908              -2.589616221545455              -2.0314922144172374
H              -1.391933138009095              -2.6437135383510912              -2.1283792922351616
H              3.830339783935133              1.4111414570507868              1.5957949031371192
H              4.190996547597743              1.2976566843715103              0.9340823474663661
H              4.137760262005009              3.6739473542992127              3.3259315467775323
H              4.456636045733393              3.7832703516642203              2.755581400113935
H              1.9141177600939425              2.3472249403076617              2.4635297639584586
H              1.1757566768242629              2.385366531117979              2.163962331208217
H              2.9698050780157397              3.876623564006218              0.35943540917262046
H              2.2603004112951104              3.697832269367742              0.49182899831627264
H              1.0818983301793188              0.8359657030848009              -0.5438229935350649
H              1.113612853042535              1.2288128673015908              0.1534815237356761
H              -1.047386142441961              -2.6287887252509607              -1.6468840151954243
H              -1.7146747586229072              -2.6561224493740245              -2.100393586191202
H              3.735314421440628              1.1591095792502613              1.474004941798294
H              4.373590649343404              1.4621374110316434              1.286804078547201
H              4.1527410639684135              3.6640156034139357              3.5023173380427823
H              4.524254474692023              3.743316912770798              2.8719742082614292
H              1.384467891351505              1.89655232851253              2.621174572962766
H              0.7624811119010667              2.302717618236461              2.345059678484133
H              2.9282141301666793              3.827976486125297              0.26575275504342033
H              2.241321378056027              3.588130653512898              0.28085719576525464
