72

H              2.3261519537896818              1.0468169906831875              0.9295606307139677
H              1.9741088087143046              1.7219310072975162              0.8795150561642316
H              -0.3451422453365705              -1.1302079951157957              -1.9079731349577174
H              -0.5194828594669564              -1.6113952924994783              -2.3322177765699568
H              4.77764304600552              2.418314292077133              1.4348456909983154
H              5.144333685636875              2.6008665581119677              0.8025845827259508
H              4.135998210046087              4.840930392019074              2.7724842636047526
H              4.342404974311059              4.165492789120969              3.078848093254662
H              2.889732267955171              2.064971033787011              3.5644702059029125
H              3.2106924903502225              1.862187522311799              2.9292327219845586
H              3.070960869535414              4.521575195965583              0.30697605875031464
H              2.581275917710266              3.9596721135200124              0.407946881145305
H              2.076732033648537              1.4922538095539486              0.9970399771275148
H              2.0343891844981306              2.186319134879934              0.873660366348424
H              -0.4894918703555564              -1.423367677873084              -1.6228471787733578
H              -0.831688574993824              -1.3358055983546493              -2.3345440937273483
H              4.706249776867355              2.1807354229112295              1.4479764925166136
H              5.0945828378694165              2.709303549854933              1.1687238887902718
H              4.373104253751898              4.678140326935968              2.6093190044647914
H              4.592929134232262              4.299147667937518              3.1644540560014907
H              2.9636825745470223              1.8715216709220237              3.7928307914735844
H              3.21148216177826              1.79652022876766              3.0687633421451475
H              2.9996953361544216              4.703037172576209              0.5058579015912581
H              3.0098021981415197              4.008993627317941              0.2872885604850357
H              2.286795653299827              1.3619954221487423              0.6887728991221628
H              1.9385327272367163              1.9113466399730101              1.0709662977709933
H              -0.5752188222205855              -1.2633489349666593              -1.6703122362537024
H              -1.2411799027401913              -1.4270631727290612              -2.120555241537146
H              4.816407839786596              2.0320525353189973              1.3385302323392156
H              5.003359217756304              2.8155781447294124              1.2422739384641508
H              4.662202532466279              4.76703498617507              2.6161531629766888
H              4.515646630428722              4.219157339417101              3.1283301788507427
H              2.925951922388495              1.716049455846579              3.756400172666373
H              2.9593140853057815              1.847453389173831              3.1138440738940205
H              3.1651865052392982              4.555808038949685              0.274567319045647
H              2.763869079795886              3.9262636535678497              0.4015412698068575
H              2.1047942001904065              1.4880121423871506              0.6735426008493197
H              1.7922586879947273              1.986221773836414              1.1129976424474401
H              -0.6399016067347145              -1.216047078655089              -1.6135229354616327
H              -1.2405578073162489              -1.4092674895013098              -1.99501879125612
H              4.9337537176705935              2.3861904871250457              1.508292199152851
H              5.204532094262004              2.69129044633319              0.9680359833785497
H              4.685812332675225              4.915084287815034              2.7057365514590073
H              4.470890334356611              4.263539270351474              2.9135233658348216
H              2.742104920241236              1.7455608615832054              3.6941327255755456
H              2.6966033126803106              2.3297249166429244              3.3502014685160217
H              3.110079582431769              4.687522274317309              0.5274086194292582
H              2.942437669204851              3.958966492859631              0.4448910204892849
H              2.283037836191464              1.163872336292497              0.8915149712297237
H              1.7097855367008719              1.5721566044472697              0.6843390591471403
H              -0.8864728846216197              -0.9716388915467968              -1.6751492169774918
H              -1.1801408852016002              -1.6065764151145892              -2.1169347698437098
H              5.108533076221075              2.3727163376007816              1.4843563327027027
H              4.9799712719762725              2.774262683518704              0.8530243782444952
H              4.4608118552833975              4.905037391892162              2.5271481245708385
H              4.290900174235154              4.420774476389701              2.997650183331548
H              2.7375128059704656              2.167690777545191              4.028893067865022
H              2.799082765246675              2.496029154436855              3.426686630811266
H              3.0577554140668326              4.596357401975392              0.39472001668555523
H              2.718256070306177              3.9408667944659395              0.19093325886274698
H              2.497360643258624              1.3402847293774307              0.9354009185052677
H              1.779748723194075              1.3532674627674972              0.6548207309624559
H              -0.6949826334545061              -0.9894213219854395              -2.1070129832866544
H              -1.051777425305272              -1.5477501225664319              -2.374788692282714
H              4.834279335577049              2.3528986667075733              1.3713374558545262
H              5.366252883639419              2.812215450895277              1.1575883560584472
H              4.114877646609261              5.181283836617499              2.6163219050440185
H              4.310636264618314              4.392084024383603              2.672010069680595
H              2.8371360862014647              1.6308559254548705              3.6605707551452746
H              3.1299596105136454              2.142042130141845              3.310848208345258
H              2.980231015394532              4.417890283753868              0.26965957316923334
H              2.457593766402307              3.9350395049877007              0.5463645931844467
