72

H              0.6926662935531367              0.6169581569213349              -0.48581193476593715
H              1.3840870434061678              0.9359943414283675              -0.45984691168452296
H              -1.4877824092868899              -1.5406921013503347              -2.4938572580959013
H              -1.594402998000662              -1.7670602965148021              -1.8584326256003787
H              4.1520362060164935              1.2134367026747548              0.7046501953287746
H              4.115969034573689              1.9469195711737668              0.8144213577108897
H              3.9627018916860552              4.348919320229145              2.37376043145456
H              3.944251812293212              4.311062645000903              3.1357849208689723
H              1.6398384724657018              2.0672545566184053              3.0604764040416104
H              1.348353930950653              2.0696850448626054              2.38123507318853
H              2.412536227010562              4.182029115397298              0.11355193092325834
H              1.9002218899261478              4.222698785314785              0.6329718883844645
H              0.8814019904243048              0.8867552336358284              -0.13209238916998406
H              1.4855230637808194              0.73777444179536              -0.5602061813184332
H              -1.200631986463916              -1.6009883211931308              -2.3563884077175703
H              -1.4870529120961162              -1.7306753914727195              -1.63058573483301
H              3.6326874710562285              1.3371824699200114              0.8432362498058797
H              4.0899899136393785              1.918077076426162              0.9591315356481918
H              4.274624827351064              4.0303285491815695              2.5711515170534347
H              3.815708712675542              3.8278014441604835              3.1148571974693806
H              1.321996500597771              2.226469470493965              2.7706205621838667
H              1.9499811701912786              2.111946941149515              2.4235830069702846
H              2.3563099826702905              4.1157003878687854              0.17882139278939532
H              2.0799728519560663              4.084495877179729              0.837488311726154
H              1.053613698622659              0.7914887945658017              -0.5510321242515477
H              1.4381304508775334              1.3515371489125987              -0.22687677326563588
H              -1.2136044937311916              -1.7186982457030195              -2.109640536646247
H              -1.5227476306943004              -1.853212333949832              -1.4189695408520389
H              3.7146570335675024              1.3189309195426275              0.9791726042998855
H              4.1044875643017384              1.8774484377483731              1.2457222362064602
H              4.024348048527875              3.9685190385985907              2.332785303960955
H              3.983534547403303              3.9312914571052002              3.082675993311982
H              1.2337834832780707              2.326993921376314              2.775519237381196
H              1.79055933108298              1.7983244296838807              2.6154864695895976
H              2.4818067273323776              4.179368073103129              0.6650162521895775
H              1.9054343220351053              3.8048468281726806              0.47652132563947713
H              1.144729262482519              0.8073159397555081              -0.7047062802535946
H              1.579740701944271              1.161439340626571              -0.2811613406462975
H              -1.7408920299413042              -1.8173932600739935              -2.394128310116664
H              -1.9783174198558495              -1.9740723710294676              -1.771808113406894
H              3.5396204565827407              1.2929832405159587              1.0848413456554316
H              4.2050053757294386              1.550835571115713              0.9765518074171986
H              3.676511496581896              4.474257362930307              2.4623609139805525
H              3.8164621704035966              3.9326817062714166              2.913453086772776
H              1.402419356190865              2.120185787836334              2.5852627018501537
H              2.070217569168289              2.1177934896368478              2.5246502693957877
H              2.480212999792934              3.9746578630631486              0.625514803243461
H              1.750052513707005              4.1016071663695              0.4645884981516372
H              0.7878405757649456              1.045889395401864              -0.46616921256581867
H              1.512290885113498              1.0182807328416195              -0.5417120584714054
H              -1.7133346497842155              -1.8110593302966926              -2.563874095885966
H              -1.9349384223316397              -1.9097497150070422              -1.8409907359670643
H              3.419188406409613              1.1636267954083663              0.9435498602952784
H              4.0237783322533955              1.5518256762215898              1.0669255938244164
H              3.7768570768385334              4.64677970293642              2.568424277431845
H              3.614705475282569              3.915544821831174              2.8970921756740986
H              1.4954875789770994              1.9224468857318011              2.7651207933269992
H              1.6370116426383696              2.392484364217218              2.2169093057456433
H              2.1574306900207656              4.093825415036832              0.2911073723273954
H              1.5692630375105563              4.2116957733460305              0.8223420688988942
H              1.0094105065859045              1.0541510485062595              -0.7119301623044869
H              1.4546011854010115              0.665939693879297              -0.32433472960379006
H              -1.5682745828079754              -1.5127597492214981              -2.4339253108535566
H              -1.7665266834586795              -2.0546280929277922              -2.0052673142467805
H              3.802268010439606              1.1237868342473225              1.070727467235388
H              4.072642819093332              1.7709090842141604              1.1716952932075984
H              4.094002789694336              4.540993258574541              2.421395832546595
H              3.8085399482928355              4.360050098869607              3.0606529290679982
H              1.2985337765213867              2.1612864098150832              2.99835042271969
H              1.7825701732044066              2.0182613868098964              2.3007433211253727
H              2.267033202094886              3.949668456469068              0.35148563799002835
H              1.6141657627748738              4.1637205167755384              0.6831957747328614
