72

H              2.4067267394465706              1.4826213744919277              0.7132586442194168
H              1.7152799396422251              1.7656891136577846              0.5814097770419233
H              0.8637866651595912              -0.8458749076219526              -2.1818004492230676
H              0.8097327846089963              -0.1274348883438359              -2.105782437581058
H              5.406728176704272              2.6562049014760447              1.4688940222743143
H              5.011857255470266              2.031629275288266              1.2976903721708974
H              3.985380225459846              4.888785734077425              3.0678177843919077
H              4.3023457334171304              4.350580134642964              2.7120632370326083
H              3.0890272214702112              1.096297726506859              3.628920186289534
H              3.3240856472073927              1.6399920314270295              3.287608773228517
H              3.0486798408653986              3.9739638602828906              0.7993344901796665
H              2.8152948072068105              4.464579791017486              0.2973114904290978
H              2.2806599990620824              1.3663791970293693              1.0600595523250573
H              1.634163240614726              1.5581842336858052              0.8691667984601051
H              0.7650507754339536              -0.7015820552571231              -1.6558847910289574
H              0.7673834681770508              0.006809829516911756              -2.0302351194286743
H              5.492232079903226              2.6215494573715543              1.4269784790375062
H              5.061676916706337              2.1411705516061446              1.2398176943588928
H              4.274036450016615              4.636659763984644              3.236806054506214
H              4.51373273500057              4.205688032589637              2.6379533020015953
H              3.346677130331411              1.3450886597117044              3.6191143048326486
H              3.2654180603032343              1.8502950559352846              3.1211283140077692
H              3.0998850757432694              3.84849499390068              0.47345742781355266
H              2.8111030154772823              4.533048226865848              0.7118697331096248
H              2.0127240572006078              1.412574024516314              1.10676425023016
H              1.9023070921320842              2.148321458643287              0.8476492277351674
H              0.41187331489064377              -0.7156812939144886              -1.5322676148553525
H              0.4794109286411834              -0.10396950178038702              -1.8595547905612335
H              5.1324507161028174              2.609370050071712              1.0787657730383486
H              5.149178455749226              1.9120808723741018              1.0098415559364045
H              3.943974596975665              4.45676420117575              3.2426696567040825
H              4.545474700636079              4.248648859619936              2.7756286189482853
H              3.5493679706622037              1.3140866237794706              3.520009375021721
H              3.0309879980098415              1.7618824722804232              3.3243294233594822
H              3.124501967859455              3.889182230370249              0.5709694972081065
H              2.8343580643391797              4.580649590467586              0.5322186639536685
H              2.2023711255353686              1.206398450388241              0.911193962239402
H              1.7725850874490958              1.8628653370678752              0.9372764750734797
H              0.546655385904302              -0.7298464812388847              -1.653641242829047
H              0.26667266096867426              -0.14949523938623727              -1.8927386102202715
H              5.110904326115019              2.378656726026324              1.458050962373652
H              5.089063256372924              1.7218176747131655              1.314991535216544
H              3.8900393453698774              4.7094167298574545              3.3897862302233275
H              4.276647644020309              4.312848536500727              2.8415560207636603
H              3.1529047782850887              1.1773616858035176              3.302776478950527
H              3.079501574826839              1.8756485110550025              3.4062483504926235
H              2.985029843735153              4.162187936408065              0.6958321748746392
H              2.7648474244824564              4.5491473778453395              0.1446957323551568
H              2.4219901567908444              1.5456474153464352              0.9369895734786048
H              1.6847086210493936              1.7212593568690038              0.9442297521514338
H              0.8575506901657447              -0.6352052787624917              -1.838006972435167
H              0.19547823628376387              -0.1666830002533168              -1.8409032739693996
H              5.423219791672977              2.4375257939241823              1.0822216617224596
H              5.225779079191387              1.8914648985580795              1.5164846424613343
H              3.8362029375864903              4.821578557403358              3.075929098245154
H              4.45661389473359              4.70926986780355              2.6163065283967293
H              3.4980379025167454              1.5780156087192732              2.9659328278830617
H              2.9498319803031006              1.9100000436170412              3.373256563939017
H              2.8897441737606346              4.23472284623543              0.6775410354190227
H              2.8790705225900926              4.848124499832675              0.3000095126311601
H              2.2415137872688957              1.6496518869723973              0.8262571305875804
H              1.6373697400260807              1.5175604167123562              0.4663138461765389
H              0.6385352964148033              -0.681363728636801              -2.150043390060681
H              0.45913633693976336              -0.010350777810442904              -1.95404856098574
H              5.4525768930386205              2.5120919879658716              1.206510551857597
H              5.009645985860146              1.9395367442166738              1.0184084600102454
H              3.734352570420435              5.105645610025988              3.0365090388184335
H              4.166646943465663              4.520376735038608              2.811367110786876
H              3.421576214328471              1.2985725650444015              3.0563173735432727
H              3.292280982889262              1.8867769959713867              3.41979602207291
H              2.8281026788751267              4.011022018641957              0.5098200242673772
H              2.7716659952953018              4.713607729768483              0.4004096544155657
