72

H              2.2433607821724393              1.4530743880201014              0.6252879510476448
H              1.6760003688004128              1.683809284923272              1.0181747500953322
H              -1.0394025361989496              -1.0517616732331834              -1.6776679595511594
H              -1.3984267681037035              -1.2421274456013374              -2.4405189416366997
H              4.835848461523309              2.142974868036467              1.2292849885855186
H              5.18196006501131              2.728025985421693              0.8547152306640053
H              4.38503480820067              4.935932000249591              2.5826022457520814
H              4.642952398563345              4.425248392233108              3.0512760694454424
H              3.1011551302614935              1.5048588669876524              3.9022976765194746
H              3.1415819031860956              2.1626561585594217              3.4553117357084466
H              2.8923664147733263              4.4961000186959925              0.8181053508464422
H              2.844203500133811              4.038441352758732              0.24480818850562097
H              2.2651236762420326              1.2995758036046257              0.5286014649484623
H              1.7115662270339345              1.5856218431135034              0.9490734726195443
H              -0.6743167605628665              -1.0027315595394644              -1.7622958573927205
H              -1.110879066762819              -1.3540701770335695              -2.261991702688316
H              4.767325025351815              2.305080757012659              1.3348121401224262
H              5.131423061891712              2.437707025902823              0.7142062592762148
H              4.33620175044641              4.928342770278326              2.8213297997289684
H              4.406245301908354              4.166410130635282              2.8767104113903974
H              3.4090901217030827              1.7478619121726986              3.6870157616922716
H              3.052948478937136              1.9036268985934832              3.1076013305485306
H              3.3154599992571              4.527633416913589              0.6588161839517424
H              2.699390670282331              4.175418091552834              0.33502927907929253
H              1.9223876716866557              1.3093040905632154              0.7132645814188139
H              1.9013326130324004              1.985969615140984              0.6236726285837274
H              -0.688139481040793              -1.2400041907145178              -1.6330693475675362
H              -0.8881710367184816              -1.4055546701018813              -2.2404860484317637
H              4.944793433219877              2.4675274961406157              1.594315889922033
H              5.136622573900005              2.292355414605698              0.9002206790674888
H              4.275824436603253              4.815844413429316              2.77040771981284
H              4.457714793939387              4.1216939215072355              2.8669609708411596
H              3.168473990169678              2.0421735822144695              3.8026449575866024
H              3.099058525725203              2.058455135940223              3.0998503667746693
H              3.2731058063721368              4.702951059250264              0.7191201018788574
H              2.9683355339988906              4.2938774457676425              0.21684538941868176
H              2.2873275776137616              1.202602051606958              0.8919066177776745
H              2.052972978806008              1.6666753295743544              0.39867428948709477
H              -0.9772766015028373              -1.3137032894207445              -1.7710708315584034
H              -1.0857441203488585              -1.7524621778368952              -2.369793923545317
H              5.08353028402498              2.1818711935218746              1.5609518693227225
H              5.0512035336817              2.796481310311033              0.9910874800152436
H              4.436639177944948              4.741719126109043              2.628675699626457
H              4.385725695936718              4.0436077011335785              2.9753338340857436
H              3.1620542031829286              1.7984643317181428              3.806964623315568
H              2.976532951330093              2.230331997825501              3.265782299502018
H              3.2080002156761434              4.64167987807914              0.23960487352322274
H              2.565702590149623              4.3248647926231705              0.2930811941457665
H              2.4827044378683247              1.2011067123847223              0.6841040452071913
H              1.883877005203878              1.6511239780198894              0.8865553838892077
H              -0.9907821303859918              -1.3188839952739577              -1.92689998982777
H              -1.1585923671804124              -1.796240156591483              -2.4921938809930846
H              5.016289693813509              2.3394934913207175              1.472460265878271
H              5.4066563148572              2.805703351138818              0.9553701843766537
H              4.504655427854629              4.814210757624899              2.9202126485014084
H              4.404407195272262              4.054221392288391              2.7584663154630116
H              2.8223872115929507              1.5202775141492502              3.638600584003573
H              2.875543432525034              2.0564946908003505              3.2009445683121434
H              3.01231093009454              4.497406481916015              0.2217606891167004
H              2.4801681313567103              4.079484742725723              0.5855853588181648
H              2.342976250381966              1.1320077881125348              0.9302663520714873
H              1.8501381528383318              1.6883228994692698              0.8891271056252541
H              -1.0262309489950725              -1.2434619745464022              -1.6724759918006507
H              -1.0247271552772663              -1.6706494784855666              -2.400916346248636
H              5.065232692723924              2.418256438118062              1.3011487825168941
H              5.082787450498594              2.6902207939803007              0.6044155894257034
H              4.6236983678679415              4.664609247570738              2.79811198016403
H              4.479962649186177              4.168422747751724              3.2600765119300807
H              2.7455365608754834              1.801032879274421              3.8028151499329765
H              2.8909347266786756              2.374447499917314              3.4669567498708163
H              2.9594179487659797              4.705650204528906              0.5686289462675302
H              2.7421779976349088              4.03233502657719              0.1714748327870957
