72

H              2.382333243718301              1.6878249355868407              0.9408084859842357
H              1.751716928902123              1.6309429107590856              0.6007714998319637
H              0.9921817543028905              -0.6948901183168318              -1.9365098437112194
H              0.8627553199900909              -0.012222895030019495              -1.9103571476173453
H              5.259757948814854              2.5234178070578213              1.2355768732248054
H              4.904493849422932              1.950023388460214              0.9182921312231958
H              4.037624213914619              4.555507417138146              3.20837442801395
H              4.25789355401774              4.412768110148542              2.5577139589082476
H              3.3917396443544297              1.159381393684261              3.617743612231893
H              3.191362649293494              1.7935256768462697              3.3866074173920997
H              2.594945911866099              3.9391896269881386              0.7305717064452283
H              2.7795645237752034              4.573767375411752              0.3680203446971617
H              2.066868399940448              1.4911075619428709              0.9631275696264716
H              1.4978010925480736              1.8972046601402108              0.8042481787388119
H              0.7201559266290224              -0.7253641133076643              -1.6117916197895332
H              0.8956725232914955              0.02880484276222178              -1.9503534364744604
H              5.237977638050883              2.5555626773232083              1.3920502317789523
H              4.909931765164212              1.918149215562113              1.3209369436820586
H              4.129479563250494              4.731048191644537              3.2455192165940057
H              4.450596480199036              4.262127087243377              2.7687872022200737
H              3.612010913186914              1.2170141698000727              3.71394809078527
H              3.2628460695175994              1.7212468780809984              3.2649320961128967
H              2.9814071081949867              3.8671247078236357              0.45272541513881465
H              2.9302766679015444              4.674999831136118              0.4462261553904551
H              2.1650770110415536              1.2158731934505749              0.9582155403343411
H              1.7964610885004066              1.8808761773620255              0.920641123440495
H              0.7223333728751284              -0.7719816876239529              -1.738063946826451
H              0.5761026653015902              -0.1060826581301089              -1.7946944543004346
H              5.063687522097259              2.5767587910360334              1.155516583270402
H              4.914414623986708              1.9931565067179013              1.480509629575406
H              3.9697561906005894              4.796522065141426              3.188923019972702
H              4.5551313995544875              4.319166804764043              2.944655925383437
H              3.480207118861524              1.2170623183679339              3.489178499803768
H              2.947144934752217              1.667084509225094              3.3085057718032655
H              3.3346532363132697              3.8429997418785553              0.43048122134878763
H              2.9577134320320893              4.513559334908715              0.4338102046569607
H              2.1301795275447044              1.3948658204897797              1.2950268146813881
H              1.7120349164393578              1.7397545227455566              0.7221177566627979
H              0.757465274114379              -0.8185357919076947              -1.5967805042831356
H              0.370191611322481              -0.2665436303301194              -1.7979966785158579
H              5.294047361079713              2.48994906812305              1.3470798720476422
H              5.293247988837848              1.8209995411545248              1.1158147656241202
H              3.990416960223259              4.839394438749901              3.3459630943874936
H              4.432519302625959              4.529305314431586              2.766442177202276
H              3.0991056437838727              1.3431517328756861              3.1790431201444522
H              3.028455381509394              2.0050488503200024              3.54031177101028
H              3.1419465765589365              4.122408596919524              0.7825365565047049
H              2.816523136945635              4.664019988489406              0.4013483149752027
H              2.500934700958428              1.389606880151306              0.753248073727569
H              1.9461953055721548              1.7798033736622507              0.9897722797613332
H              0.7157436752653895              -0.8630080001050314              -1.8821670893750602
H              0.09341547551862298              -0.3695003762551249              -1.8481037999568908
H              5.1872592283982355              2.46774781468019              1.0655493443545365
H              5.155325956127699              1.897374713757477              1.5013392010624347
H              3.731787287226312              4.724768981191955              3.0994042957966044
H              4.458613067837433              4.702445110464155              2.884688687252147
H              3.4005383431872183              1.6710988407926588              3.139333388573035
H              2.851273685478538              2.2062918304707813              3.270549528451848
H              2.9927533487714437              4.149790044474739              0.6335073085279747
H              2.6762217475207164              4.541986834617495              0.07112289302168676
H              2.563958467430287              1.5756348390853734              0.8553477470061756
H              1.8619309860610778              1.545404928201331              0.6027936343758578
H              0.6037420030657269              -0.8239934989892148              -2.2456563010075605
H              0.3461232462558594              -0.10845208845337347              -2.101966904713554
H              5.265686177509229              2.6505546352022398              1.2700631167669219
H              5.10131955253966              1.8602499552401022              1.286416906060596
H              3.6746988964426683              4.866152869324285              2.919974005802559
H              4.3837590799339425              4.62056036830301              2.802224435132088
H              3.1770586186703413              1.2749979728764116              2.980081752860331
H              3.288886021689186              1.730900624894164              3.539472395561359
H              2.660010601171908              3.9773628607299507              0.6998543693387774
H              2.6282826441123306              4.541075179895905              0.2314931140900324
