72

H              2.675867016679287              1.787128594309933              0.7782647005219915
H              1.9056759974170179              1.8093505043295859              0.7108100477414272
H              -1.5728819635566245              -1.4820879347731046              -2.1996026468185494
H              -1.1594124842922935              -1.5388237336709258              -2.7070258530427953
H              5.091246800513683              2.1079157271131725              1.1505395062566741
H              4.882018737022146              2.419518846617716              0.45038057265488807
H              4.116513436908322              4.71022758857944              3.129501619601084
H              4.598542068352926              4.183048472310228              3.0110059568101035
H              3.52130846836903              1.47817705864362              3.4892445256565923
H              3.123309671392339              1.9863830852973572              3.3961168506742836
H              3.109235911746371              4.168869748039123              0.9996905630432892
H              2.5630232435032827              4.244346988486697              0.5094270982106432
H              2.652152513989032              1.8058079798363738              0.6180650469586428
H              2.0608803889174796              1.9647840192228656              1.0148768277469782
H              -1.4335571341415454              -1.473987839408744              -1.9522126136891644
H              -1.0587852234305224              -1.6340303420826015              -2.6711341710529615
H              4.808429865989803              2.3215731828449546              1.161846534650811
H              4.897942791055307              2.471815375023042              0.42997524495073897
H              4.604438761295367              4.514082342792384              3.239531462962851
H              4.708554480727239              3.8456545132529873              3.006732752875351
H              3.540134715076233              1.504371821783447              3.2523287336762556
H              3.1492971556026452              2.119173321737247              3.234039147493451
H              3.197531414532716              4.339713112448152              0.8565966165112062
H              2.4999986733699364              4.491737410603695              0.645843270165212
H              2.261409070329628              1.8001983355418738              0.6519023500948956
H              1.867742977765896              2.242500093818768              1.126163184393926
H              -1.6998390612046361              -1.5489193072277814              -1.6537200103704257
H              -1.4550825638841873              -1.3198895067351348              -2.432199680714738
H              4.825328275342797              2.4976473231017735              1.093194543799185
H              4.604205304374804              2.271458242016302              0.3808138880521857
H              4.618496259149845              4.528495063236834              2.8899793201324826
H              4.863259211157414              3.8817990078055358              3.1821293093407945
H              3.3244188775189856              1.5715343112433304              3.617449178121677
H              3.05039183407476              2.2887355488043366              3.26977174469437
H              2.8817036094238837              4.609908315925227              1.0740164216274868
H              3.0506183283827104              4.520783720810433              0.34308303078720276
H              2.514900986192113              1.8884776059536925              0.6234856715581399
H              1.778524537230617              1.732683062729256              0.8362575629593718
H              -1.9326479124819789              -1.3659714107023264              -1.7913829575131643
H              -1.6515327022765638              -1.3715624579196772              -2.4733077051211856
H              5.182279136661721              2.2278766366418994              1.2222060970314794
H              4.641530247989007              2.4729865589001627              0.6362511952403013
H              4.647428955202312              4.608614368466824              2.73078807399514
H              4.702815320306337              3.956434260547158              3.0692124315026152
H              3.4463372280906768              1.885991715624411              3.454549764121718
H              2.8323444504115534              2.0742945139828084              3.91709304987994
H              2.8014956019370514              4.57791649965907              0.9150825526458481
H              3.0078298219385537              4.455812032765688              0.18113853365979887
H              2.3362710095869614              1.6713315125306025              0.4789247948347204
H              1.8792228656391183              1.5536933341208465              1.0419566283473194
H              -1.6865469097065826              -1.0632171682366038              -1.87533933404017
H              -1.405126826147315              -1.3987144175265749              -2.5360343723133636
H              5.096452385561173              2.5969559343259463              1.3339553542392952
H              4.811365173681777              2.542729160915765              0.5977854210437668
H              4.520053973683954              4.792082457293143              3.0138730663290207
H              4.762265824860432              4.1589067830728865              2.7817969158868086
H              3.610603982671025              2.041067794839671              3.5995321173760284
H              2.835410489353187              2.1028467320642115              3.4548768957607683
H              2.8641864974562945              4.284816384987673              0.976718751631284
H              2.597173745348543              4.4739961513456725              0.34130446569559
H              2.374129213613567              1.3431432984306417              1.105290574212139
H              2.031571406311144              1.7416577105472468              0.6294244369388496
H              -1.5530105324671684              -1.3051180827145594              -1.9604543778994943
H              -1.1176116842993793              -1.5261544627053483              -2.484309489165884
H              4.977609041622782              2.6502125442303703              0.8643045118029217
H              4.638629918796772              2.391722799419625              0.25004835399567
H              4.215242871999757              4.8298866777313245              3.137299321875942
H              4.680059313917106              4.165887558836001              3.127339674639385
H              3.5765563622546996              1.8335596204376852              3.4933433487435437
H              3.0165034301595663              2.368419388408637              3.5394532883308836
H              2.955941465762779              4.4531361433084005              0.9540333690948255
H              2.727910248811559              4.591059906444028              0.3045029140006282
