72

H              1.7121379937802939              1.869717805906354              0.12996769275247894
H              1.253050313040718              1.4601013340536826              0.6244342174641779
H              -1.3995357420780605              -0.24984976979337395              -2.250476920264033
H              -0.6925877278981702              -0.23586927929439563              -2.1618242347040577
H              4.37405883336868              1.7408400458914508              0.9745831986387389
H              4.679497063137669              2.288923882913171              0.6620389584475197
H              3.4363469752423272              4.0827480399324445              2.8685015731441363
H              3.9091013437536164              4.556462309514556              3.0971612479496584
H              2.220759720797336              1.577277465428431              2.901193547765525
H              2.5412179594467372              1.8259722258859583              3.5072890526811915
H              2.5372059845118415              4.2461993127131485              0.29850817594576395
H              2.0622573246826255              4.021202524041296              0.8101317194834471
H              1.497469917904881              2.0613996729702633              0.203731038439344
H              1.5428880441563713              1.3784946995246368              0.2573243999097868
H              -1.2907751834456647              -0.30538395021437686              -2.196462537175213
H              -0.6389605587993273              0.07135518933641866              -2.344559127676388
H              4.492617845682672              1.889393690984254              0.9007879289685213
H              4.2670367282368735              2.4005826869595057              0.38826427494800625
H              3.4475687435823748              4.485879814662854              2.375650157712008
H              3.951025878913117              4.568497190771126              2.887826114728846
H              2.0575352558409357              1.3906120086945335              3.1775052631336664
H              2.7153477358581055              1.765909299993007              3.4143703280876623
H              2.511154686975831              4.163242010438924              0.4165070589206896
H              1.9972519296505247              4.28760620514248              0.91573942910704
H              1.660792130196671              1.7931775430194739              0.15143695541394522
H              1.1926786840111607              1.2365021002633108              0.5091039818404973
H              -1.3897445214504              -0.0023441392857179266              -2.2951462386467885
H              -0.6222994291645083              -0.09240989880089523              -2.4764248913670226
H              4.29677019438995              1.871375565062408              0.6896069629756134
H              4.315287270363654              2.575101235279839              0.6301237389371219
H              3.4338067659320823              4.353384277726154              2.6961741840368454
H              4.02655556304332              4.77666767941738              2.8121678261440994
H              2.256204052597191              1.7852806889463486              2.735040266878428
H              2.9355114308670682              1.6647173244866527              3.0429026304518345
H              2.5430762758011847              4.3391938879331              0.36491987220199
H              2.0371533568710407              4.547035892220378              0.8680406239073594
H              1.623170960974427              1.725781674322248              0.15706625918723974
H              1.5468456025300188              1.1758114987511592              0.6413895051586096
H              -0.9473013518833955              -0.068988217439417              -2.1845735787834757
H              -0.44277678583984537              -0.00749839531838994              -2.5872699116535456
H              4.473112180965789              1.8755006446544296              0.6593893879858438
H              4.499874956487563              2.6441015949500017              0.716469142977791
H              3.6956771711235454              4.04889657261569              2.697640413398534
H              3.92697496468286              4.646790831613342              3.0839598755280617
H              2.2467335040794887              1.3756568700073357              2.556510535992045
H              2.5958892104452445              2.0985380612996614              2.904023744583647
H              2.481917551272603              4.266711072240333              0.16603125765283205
H              2.236444070475084              4.1470953098778836              0.88557580852686
H              1.5804440486188858              1.7071918916012              0.42774718724795735
H              1.6996640291089784              1.0778226593484426              0.7813646298849809
H              -0.9182252180777111              0.11756192411316971              -1.9461572318935183
H              -0.1648772938013639              0.02659564295228561              -2.2714630143907386
H              4.560257854119092              1.8408674604015018              0.4822402810395281
H              4.66767789282145              2.515728598104873              0.38295697464435635
H              4.081245402239381              4.075878105757615              2.635364847209968
H              4.022690493480778              4.457171595848127              3.2102827103267275
H              2.5293263256247887              1.3895874956637022              2.7483308324269746
H              2.612874866457806              1.9445390615193576              3.16257530716094
H              2.473072988351304              4.1399784427546695              0.25146938381704603
H              2.234824981623848              4.246101938871062              0.941951700007357
H              1.598143913579283              1.8407540855200137              0.2817758310338025
H              1.4819992461902027              1.443891007712647              0.9093260380052359
H              -1.175464846186735              -0.04316538417886782              -2.037968134208764
H              -0.4156813412730356              -0.10651433498481175              -1.8073243751218908
H              4.462857314304103              1.7258618648159576              0.3985869786637282
H              4.705131427877728              2.377039590098433              0.2935013116378252
H              3.667358642869487              3.916501392900697              2.9230998644168245
H              4.118250627739077              4.4871825579044025              3.1413713477445104
H              2.253652184781886              1.5746222006332564              2.920544831777605
H              2.7627621665806146              1.9175039824715117              3.398615562671969
H              2.589161051787935              4.310006798945942              0.23184216536042113
H              2.129171951990625              4.092730131274791              0.7662848215518004
