72

H              2.2875977052635292              1.2867604486609114              0.9821967853105396
H              1.996064617387498              1.910385718913039              1.01965477217626
H              0.625866783310423              -0.9930432273311701              -1.7259415627885264
H              0.21892677510833816              -0.42572652851590936              -1.7817440645889593
H              4.6233448240292905              2.3359360614548907              1.150607994323612
H              5.035536254425904              1.824555168214008              1.5731871358215377
H              3.7828660868318496              4.682060988320094              3.165778258364756
H              4.47819763744365              4.7056364751416              3.107738084756052
H              3.129209611001247              1.5915935613299028              3.1586340338308316
H              2.936012244490694              1.8228061810328104              3.7830151801775
H              2.883529569103146              4.043886720876752              0.6716025027545918
H              2.974317238948877              4.363452802028087              0.018326874932245545
H              2.6746898397534022              1.5436947769256792              1.0713125255807152
H              1.9825378191191296              1.4803080518322296              0.8931984574807607
H              0.9596868075269414              -0.7061112807753881              -1.8821823118518497
H              0.24871546375802545              -0.4887409242995797              -1.6763775299361052
H              4.925144489529409              2.3753664889138655              0.8952172315374529
H              4.908229020142211              1.9141449026957325              1.4564094250720812
H              3.813771936300491              4.709259045313876              3.048360980848845
H              4.423671605160267              4.952673649917958              2.9004887508224493
H              3.210193521623699              1.9742693938688902              2.843200143768148
H              2.9295129302968745              2.0680159892539813              3.5907484416683757
H              2.5905782253655785              4.053547969719357              0.6099648646292931
H              2.9062183170005293              4.488041393650859              0.1288771308009286
H              2.350236177949728              1.8714958137605648              1.0415810632102098
H              1.944191349700834              1.7121122434015117              0.4752730782563876
H              0.8452226773687577              -0.9003757132479842              -2.0468000614410027
H              0.46364178466205597              -0.29641194926319664              -1.7868558380145152
H              4.9612625198748175              2.539700981679947              1.0186424577605395
H              4.955388954703421              1.8258180485016389              1.074179769526529
H              3.594735081406376              4.923614724146771              2.9921258861037523
H              4.376399579321656              4.759276104607789              2.8407322935199186
H              3.370050115085256              1.7280192606472262              3.0401716645386863
H              3.1377173346009473              2.038531867303635              3.716410283313775
H              2.613225632200568              3.937649539881548              0.6234243440266881
H              2.6994473999461275              4.5614168285647185              0.21524924268035583
H              2.652901622626239              1.5021411231237063              0.5972801105830061
H              1.9492649585933117              1.7547067530163847              0.6799794561836464
H              1.0045785189987164              -0.9432346651539723              -2.1932740070409946
H              0.8111387211500914              -0.4217245960824738              -1.9278636861578233
H              4.785124860874687              2.5285060367102226              1.121207377580345
H              4.698380679627928              2.032157888143271              1.614827435635149
H              3.734150735343654              4.809073792218978              2.9087462513988873
H              4.37188866314041              4.443267034981205              3.023687476710257
H              3.270955888169945              1.2573598206091268              3.6487948979763027
H              3.039216203815326              1.9724906746734538              3.50427170408967
H              3.0092657465098407              3.7785241418410997              0.47309276333247713
H              2.583438274160194              4.2355206469108255              0.04504124186152886
H              2.3285554427332906              1.7140279194317294              1.1677182334934268
H              1.7932737932806755              1.5203741326066897              0.7485206666886691
H              0.9973239826940592              -0.9966560096399608              -1.7378055701766344
H              0.9028006363890613              -0.17780340661699437              -1.8765661955767168
H              5.0709239119297775              2.737990009276897              1.3044544501945121
H              4.844747330746484              1.9781665953385794              1.2591217126030576
H              4.0977165476795765              4.599051823124688              3.156024368265662
H              4.69989927778308              4.494919511350757              2.792968193901499
H              3.2475164565286896              1.213646164037086              3.4547114332165214
H              3.139306721267667              1.9950346976627533              3.731090471461508
H              3.005619265156646              3.7651025725589453              0.7001006888807709
H              2.7357135639160357              4.437804218688054              0.392101937387868
H              2.2577874444582777              1.373426975501218              1.1646613162975405
H              1.8117139799853124              1.9127291498743342              0.9072049393939954
H              0.749238580469926              -1.0046193761867248              -1.4742958481748392
H              0.5336715637585046              -0.25127551950221194              -1.588856878953063
H              4.689491166591897              2.556805311231083              0.9145547038857481
H              4.766454035176547              1.856522172242686              1.0377526201270726
H              4.004413968990594              4.311308597240968              3.4022177249701753
H              4.5313529151490375              4.566590475574438              2.9757148875688157
H              3.5655291570747196              1.7551640104522364              3.6552563732927226
H              2.7844864577043618              1.906475547721735              3.52898369547479
H              2.9409385831166452              3.8903506849310396              0.7173667243891974
H              2.919080950359495              4.344036365210391              0.1147974222750336
