72

H              2.1620814014006777              1.857750765252483              0.392817229847817
H              1.916637394421235              2.044245635985051              1.0326435884588039
H              0.11780553371624566              -0.2821586602266973              -1.8384225464309456
H              0.12796053868309326              0.213828291503715              -2.264516839527646
H              5.31905076775643              2.457975117785712              1.3464487748477265
H              4.752885874482901              2.1289209886854334              1.0670218645012761
H              4.069908131481883              4.4807478445208275              3.124763375842933
H              4.0394689847496865              3.904589267271876              2.669733769563013
H              3.3854321742756786              1.2637619519462198              3.274783275168755
H              3.3810536192206024              1.969280952588528              3.156828045152776
H              3.024452257630207              4.10277535447367              0.6031339413483431
H              2.723274141152063              4.677737413733418              0.3618289108889203
H              2.1497606928002164              1.7251456838520616              0.7205880516698671
H              1.4193168156971572              1.746019764866137              0.786135026177609
H              0.4531391111231663              -0.22419778861886863              -1.7879676125377515
H              0.3701533452021879              0.49752839877490707              -2.1128969704875513
H              5.354486903420922              2.3814568345827922              1.4107393258875425
H              4.782974468497929              2.261750821485035              0.7790617456910282
H              4.342641950429664              4.631387243529183              3.0104302568744647
H              3.9404268703737566              4.086228622969219              2.837673156070924
H              3.439043643061259              1.1255854134437466              3.1894598979201563
H              3.438119810119049              1.8636556935211532              3.2827967876046973
H              2.9941526036454205              4.185563434267              0.3682810482753405
H              2.9246785159821993              4.6597963710876025              0.9105694702722426
H              2.1272873406281714              1.6413464483401              0.7588270124910286
H              1.441752186039861              1.9890269258965738              0.8640876639834619
H              0.4089182526722322              -0.4743408634921059              -1.8165690536814196
H              0.46147209293384767              0.3289109426909071              -1.9542246864462627
H              5.508266706448627              2.4242852390124003              1.3063154368673175
H              4.925802328537558              2.3253734550925733              0.8698611263245309
H              4.292854371580335              4.813779872684479              3.0142417789118037
H              4.03682419774871              4.126676411797841              2.928450399590235
H              3.5406832438927203              1.437620933140137              3.1531288006843985
H              3.266647383821057              2.202275280840902              3.0992396284840518
H              3.2944633996125994              4.262282449704271              0.32103012307472595
H              3.0544033672048623              4.771208037801424              0.7913805313989529
H              2.401151046714566              1.3709242615741284              0.688934963792835
H              1.7015009316657401              1.6552266200996706              0.8259991970231664
H              0.05169855164936775              -0.6129974569811131              -2.13190502604539
H              0.2563303125371446              0.07190456192814594              -2.219126839443823
H              5.525725123647412              2.5545370588040615              1.5760230548713834
H              4.921022236066696              2.276537849958414              1.1381391579196
H              4.066803166796282              4.872981278907468              2.9339861559079363
H              4.134205073162497              4.189507855947736              3.2129439857658095
H              2.85562925788943              1.9351043584736491              2.9905263800281263
H              3.582962450048996              2.0225254222513835              2.870557245105827
H              3.4565117199832596              4.166996762965419              0.3330875135211232
H              2.8238881188393674              4.546288066023066              0.4732561711825392
H              2.5419647246912906              1.5476242108779446              0.6763424570199907
H              1.9073777513164911              1.8546082051374764              0.9550690111941712
H              0.17455577381250767              -0.5685900636991346              -1.910689665576985
H              0.16134979940519867              0.06597394484305845              -2.2881299842426404
H              5.6007548877809015              2.551507119503546              1.2142971044895294
H              5.174665871772022              2.20338879696055              0.6819481188958514
H              4.125973808765432              4.698804993425191              3.055328046042196
H              4.313331345344716              4.082864893762753              2.7083096384882315
H              3.0544505430973135              1.7659732442371623              3.4825094311524567
H              3.1804657549371407              1.8997053545999159              2.7979382606766627
H              3.1541445517094684              4.178951184265932              0.43417953855521796
H              2.6689292515486613              4.591264976714713              0.8412457387303409
H              2.324454776167432              1.515509284022524              0.8285155990352782
H              1.7183114730468687              1.994711598312006              0.9196940065617426
H              -0.05522309177611313              -0.2679715687636852              -1.5821939999345718
H              0.16217540287809856              0.08803829986119266              -2.2567526244569556
H              5.456284704510942              2.1258428922602612              1.2340588613662937
H              5.10955311772532              2.407259212522605              0.6223482777227426
H              4.208941393879664              4.467275343722368              3.229686527780481
H              4.034789749673573              3.9418322303127376              2.74564052795917
H              3.3914070346883727              1.5396753051843228              3.306180623095699
H              3.292027702110518              2.267595933959943              3.0785918718644045
H              2.8288673627333862              4.199735944822427              0.3835831981551469
H              2.5571197796003555              4.761520502798655              0.720571074552447
