72

H              1.5746866454261714              1.698677716685238              0.14346125944527516
H              1.2900048328716671              1.3022451140445976              0.7598274046544563
H              -1.5491267922718406              -0.08338850441777618              -2.1893364414336145
H              -0.8775884679382118              -0.10862494204642037              -2.075363682672984
H              4.463081684843834              1.6581999326931147              0.6786426332763742
H              4.568261550481109              2.360938559216765              0.4803654608129913
H              3.388317570530455              4.045548033325738              2.8003767455352353
H              3.8966402975954333              4.53137264499888              2.9089109438791096
H              2.2002949910779326              1.728712610174046              2.747462910738903
H              2.47901110655353              1.6967355446337442              3.431471998237366
H              2.4602546131284413              4.035779628275712              0.3278189617627346
H              1.9705701353243976              4.268225344223305              0.8457115835094278
H              1.3766185153257486              2.0304693071906432              0.30376833402956904
H              1.3501034309998565              1.3616118782040747              0.24624756606799733
H              -1.3671377896235672              -0.28220021196037426              -2.3438105457187124
H              -0.6655552751305522              0.052045314339493415              -2.273768270484124
H              4.153126436982491              1.9398064805874917              0.9638139414591284
H              4.413788177974062              2.2399854130614942              0.33627338371679494
H              3.3801838368077375              4.33853757812549              2.555251153047436
H              3.9235390219751647              4.489900162584149              2.987226407985783
H              2.070139938807651              1.6983106470284772              2.812344583754472
H              2.68556212274796              1.6055788344910527              3.2688274587868977
H              2.4361653238795626              4.263672040282944              0.27404702558408583
H              2.0124190734392142              4.349862111724191              0.8699804370242634
H              1.7403092578956978              1.5070470167538044              0.10975997315143944
H              1.1350339764777064              1.319864650888158              0.6267257663957013
H              -1.2162815983170288              -0.16275963545132482              -2.2529975223877203
H              -0.4040622545817891              -0.011621418942814522              -2.407328802971588
H              4.243301873791797              1.8666030537594427              0.8098772469499124
H              4.302242199094598              2.5874381693173136              0.8541372576951194
H              3.4873394100039747              4.207025144327144              2.755006459685235
H              3.8954253750490557              4.852121855484052              2.795881394785263
H              2.14267984184041              1.895413504305737              2.655830973211169
H              2.778787134143649              1.7254534465084017              2.9915031801733094
H              2.5350530081572855              4.118932950016378              0.29886689666617366
H              2.148709865165945              4.240612157001785              0.9130357050852085
H              1.434182383805857              1.8965370770950367              0.1093600441497918
H              1.4375250749410675              1.2341896870105904              0.5007851863585017
H              -1.115285256856157              -0.16816959835959175              -2.3650685144997894
H              -0.48335554808233616              -0.16122377181842715              -2.541199834914288
H              4.854459936664447              1.8638318794031339              0.5966354354039787
H              4.715086242567103              2.597649517262267              0.4904482436593702
H              3.5557049419333695              4.224361229488695              2.8065721400637313
H              4.019668797052559              4.775725481579831              2.772925723067681
H              2.513170323662325              1.5121863800999702              2.5362328920100112
H              2.294586211401359              2.227445550016154              2.8916506831126654
H              2.6636726662288654              4.079603490248568              0.36794731898558547
H              2.0165919742606344              4.256941483992311              0.7317503819957905
H              1.6316337367613158              1.792827415078175              0.3731724272984712
H              1.6303448744793128              1.056929839358339              0.3470145011320579
H              -1.1155968166661816              0.03933843164426337              -2.102675714386541
H              -0.3754374013454328              -0.25525271357607443              -2.279575820809583
H              4.18021119407391              1.8354870789591922              0.4237306890990867
H              4.571124805679323              2.402156925271292              0.5140222996125831
H              3.8671563050500914              3.8752795760337024              2.8827726495398633
H              4.0217661536714315              4.526510964667697              3.1565508388577017
H              2.347881331518608              1.5786499521146886              2.670555068809242
H              2.507149540517698              2.0128877662154965              3.184487167753564
H              2.2673518627968283              4.2606682540068865              0.30370412342139974
H              2.0014733401503606              3.905385001234942              0.870759136046711
H              1.495677491939174              1.609852799647278              0.24578664852796023
H              1.5594158751322722              1.359788649989602              0.9328873743466398
H              -1.2755004604358455              -0.11022428036121636              -1.842072226475398
H              -0.47709255788929755              -0.2376949993749003              -1.958052525918079
H              4.50642825696861              1.6895668001428101              0.5586510926612626
H              4.652318263644827              2.3720420534147673              0.5802155167345351
H              3.8226802612120085              3.943596798154929              2.612070589801198
H              4.175986834564517              4.421946177574625              3.0499531896495835
H              2.045239192078023              1.3433999841421849              3.145078205713516
H              2.6241535501181965              1.834186211661575              3.2148535635044917
H              2.331398130177114              4.315302177609557              0.37334207661744
H              2.0761689197280897              4.254149839954031              1.0714840761822093
