72

H              0.747898150515896              0.7002913263923346              -0.4393746597951934
H              1.4155634948173752              0.8312770876487275              -0.4874948807190653
H              -1.3615270210814183              -1.5433290953484684              -2.5494752166492667
H              -1.521855912053511              -1.917092907127946              -1.787690636540616
H              3.955569020808761              1.2153460769553686              0.8348505606394219
H              4.080553335125998              1.9566391671368897              0.6510229569606297
H              3.966656445550036              4.407845000440453              2.335481348996474
H              4.055726763605288              4.286359071296492              3.042127664917757
H              1.7530965149615605              2.1554887092139294              3.1416720272787044
H              1.5257093013300567              2.018779202231769              2.380390539282744
H              2.4862782578352496              4.126871866965539              0.1867425059790681
H              1.9402246326766177              4.3273031558821025              0.6338368673178543
H              0.8631143593503477              0.7947168545950695              -0.30527991424239564
H              1.5482978820068245              0.6727736911879288              -0.5579489530928705
H              -1.258572745315594              -1.6352538234571359              -2.3244564937286123
H              -1.592834535542129              -1.952511290959526              -1.6731723801807405
H              3.704511106472317              1.266356362786538              0.7634939524618506
H              4.030003899468485              1.9153674711918864              1.1750038158176417
H              4.141543755148042              3.915879441656388              2.5281307378603963
H              3.8578582333369464              3.9187541027145683              3.2207236369209777
H              1.2756485067196404              2.199071007614733              2.8516595570146266
H              1.8232271263522948              2.068236117347956              2.3987677832535037
H              2.5228035577502417              4.229467749866951              0.26821497714605386
H              2.035509512107951              4.049411673702242              0.8544372641899374
H              0.980348020557811              0.753949317758719              -0.4028979401259909
H              1.4591613917018627              1.2317318572574565              -0.1626745905765804
H              -1.2824198059436207              -1.7983901626265142              -2.129331282672332
H              -1.5129047224777565              -1.92460675994884              -1.4437804861972199
H              3.6323986173317735              1.2492088642995387              1.1149977121997974
H              4.156462692412169              1.8028746640098985              1.2295700073359912
H              4.026107978041519              3.992887903988768              2.332958799024251
H              4.011023317031254              3.874151155456917              3.057030753926539
H              1.2897289794764393              2.1712596552506147              2.761064170638667
H              1.8469502310251118              1.9419390750929155              2.400228623008412
H              2.4283222485926816              4.313628277340884              0.7063615658446831
H              1.8511051807625096              3.8480868405786315              0.6235830442995385
H              1.053181911778994              0.9771051739191783              -0.6345526987337186
H              1.6070418918002656              1.318635651930618              -0.27388904905055433
H              -1.6392396969094367              -1.7346307605871703              -2.2872737846402753
H              -2.10188856214384              -1.9303753722904617              -1.6196425847863987
H              3.3308144348130293              1.2947949017783276              1.079429138244509
H              3.9920741151012287              1.6019237327822626              0.9714875530819991
H              3.7456372034724663              4.4125066227620175              2.4332900832135413
H              3.9622261058973036              3.899699932952593              2.9413039944536186
H              1.4296214553579811              2.1748614081878848              2.616560242031879
H              2.2112372153765727              2.05560104080548              2.422116163466648
H              2.4286073233830248              3.9151878919513523              0.6144465693691261
H              1.7652699908935392              4.0411983226324              0.4514272963825368
H              0.848424997613372              1.1488567806132644              -0.6038714387042682
H              1.6065323354382217              0.9589311821618723              -0.6243731207810091
H              -1.7160441315720225              -1.95007651691937              -2.519715062161318
H              -2.038834822829177              -1.8874608225884784              -1.8949512185959143
H              3.6320133080200527              1.1285618101986166              0.9227862406926783
H              4.2249894215372645              1.5346284191184905              1.1751867839474601
H              3.696225852438332              4.547159623809726              2.5611643044289245
H              3.630472261091768              4.005729554242119              2.9733816228539056
H              1.3841171978149787              1.861377654431879              2.643091102618552
H              1.6934029705261424              2.4130616468788397              2.2662757086600434
H              2.2963072953572645              4.140889623476323              0.24860767633157788
H              1.679304800854446              4.194656102968096              0.5985733673275133
H              0.7453078509435855              0.9491660871790402              -0.5934335833436437
H              1.5343040427730814              0.8050384432951686              -0.5038490049867008
H              -1.482971019971745              -1.604564206570609              -2.583371607791227
H              -1.657820292160923              -2.043534057656697              -2.038670256303723
H              3.8883935725918155              0.9976421325018269              1.0481631552940225
H              4.1586833850921465              1.670388567224897              1.089387926060171
H              3.99547359735359              4.445735635041846              2.4601718453033987
H              3.6232772807865943              4.399401988053246              3.12585182491038
H              1.3689027071513766              2.1093729606838822              3.042258918269565
H              1.62183136843281              2.1057126807217057              2.4068867220905243
H              2.1946308734097153              3.8930087340028927              0.059988714064967995
H              1.7093097465358247              4.056567343339917              0.5796282908844875
