72

H              1.4788307719848484              1.6044198824666658              0.13682269635580105
H              1.5064622156309542              1.1144752701071519              0.6422273330762913
H              -1.2617720769840683              -0.050506588046912416              -2.020024907526731
H              -0.6012804965784831              -0.039050353372180456              -2.1474117072346752
H              4.056448178656062              1.7769600107395447              0.5051790869267233
H              4.289583636951423              2.5330747797407884              0.5502070200251022
H              3.7678593340955304              3.9576869569668016              2.5213220296044043
H              4.079549533589974              4.521701759261767              2.9279136561490535
H              1.9197809455423513              1.7886492875201487              2.6863322870039394
H              2.6508393118872466              1.607743565957267              2.8771062115246604
H              2.001409454909469              4.119169323074005              0.3126966130059765
H              2.0704566266785998              4.430998569584571              1.0319261074545767
H              1.5827165858364267              1.2628701779481983              0.2572771415672864
H              1.2517985249538224              1.1825595988551272              0.8963201564602177
H              -1.337237380875688              -0.02435099144125367              -2.2086598469858982
H              -0.5815489066890727              -0.22479224490077898              -2.1059461333718077
H              4.4296866157378325              1.7235315215775122              0.5509585746941833
H              4.713112856868574              2.4228793203839554              0.6971957121046785
H              3.694547609682944              3.899261131340607              3.0499905023607523
H              3.8768734386403474              4.6097239295527555              2.8462048184745954
H              2.2766221541014287              2.1410501869811274              2.3208010273267377
H              2.3594028133215716              1.6679930618673164              2.863372521128882
H              2.335963450785573              3.987279528227386              0.19243616628962518
H              2.124918126838945              4.296975161735661              0.8184114285547955
H              1.5401462744176293              1.839924588328636              0.15748763047271314
H              1.3254262640603955              1.2112462814470122              0.4395051721739672
H              -1.1944322408972              -0.35770623355681735              -2.374562221835365
H              -0.509288356201704              -0.13853021263832122              -2.1158211347438494
H              4.454053922214168              1.7071972543998604              0.688878593821398
H              4.862480133169972              2.304093961296629              0.3008618591219925
H              3.4866568328008265              3.932599773249944              2.994760116621873
H              3.9326879361852094              4.620408901158181              2.927276942193024
H              2.18914388131527              1.8299600973527985              2.463892147110375
H              2.1326938882291193              2.0005122784932863              3.2444242893810102
H              2.430801619098415              3.9502589453318686              0.15531748076646712
H              1.8825784317255903              3.890449037264194              0.7087055727572044
H              1.658039050844721              1.8260036025619202              0.20332905061275375
H              1.1838424213937655              1.1837892945856427              0.3376222624364642
H              -1.2706145196191332              -0.31938879802773734              -2.318127382168373
H              -0.6876834535716212              -0.38309778182148585              -2.0099507329347226
H              4.129390529162475              1.6874242748325428              0.7722202811146097
H              4.559618571833035              2.3357363703979437              0.5704870384836617
H              3.5408046139492186              4.150863915751455              2.969754909737072
H              4.053485737273642              4.631702401241783              2.734049223102072
H              2.200541639212539              1.7162979771098936              2.699407782863835
H              2.3839418000954544              1.9871517927283706              3.4100943958367242
H              2.4280532734803786              4.093785412216077              0.511825282863016
H              1.7188388565966655              4.064942054819595              0.7839745816556654
H              1.436913343823971              1.8196503714360528              -0.05793784228068648
H              1.2122119178361124              1.337402332996728              0.35165206634149354
H              -1.6536765402162887              -0.37791224982254823              -2.3035855347968046
H              -0.8601682613955927              -0.4912317030333471              -2.252279162356581
H              4.476266230333805              1.7071905487451378              0.7168208221598611
H              4.500935509605905              2.45073727281101              0.8427507519529926
H              3.365121494795177              4.3790898891394425              2.9086158744968977
H              3.949434479436063              4.473812482717471              2.455301660913904
H              1.9032945178918388              1.5898326316077571              2.741002846584745
H              2.2905442532253257              2.0720053768136397              3.167331461547513
H              2.40114823292038              4.1683407564678365              0.6231301280750844
H              1.7222088827213466              4.103484268563912              0.8600056888788061
H              1.4256693287771236              1.7984252817021902              0.005414193761865965
H              1.4354359076364633              1.075892239466382              0.2377924327240275
H              -1.6216416633209756              -0.15305353678577538              -2.257745612139477
H              -0.859030700281975              -0.32564916833195084              -2.562416856727144
H              4.193056189018522              1.761259606469658              0.7732577795624531
H              4.415301714723457              2.463911525200226              0.7136153820502317
H              3.4804477994854603              4.09101518549451              2.5892440577268636
H              4.00907925395957              4.61873517244348              2.8012945469098693
H              2.0350116659357096              1.570257796338747              2.543691406204759
H              2.358733550863605              1.9415006762271505              3.027855533771229
H              2.094303314030287              3.9937729384488474              0.45772849233473645
H              1.779192566255793              4.330455791785934              1.0418558554674675
