72

H              1.1197344834640437              0.711582060154241              -0.441202553706203
H              0.936918149033571              1.0406554687163143              0.24780171982190138
H              -1.7624921540951217              -1.462417236907562              -2.508176506877757
H              -1.6179644267628726              -1.5641689973702504              -1.8226720055854004
H              4.060789828302405              1.4369491654036122              0.9782958017898846
H              4.484045477075845              1.9574103921498323              0.7053373737439779
H              3.7548397201468955              4.761986016928913              2.68982479418217
H              3.8385783420033897              3.9711885222382763              2.6648427580693568
H              1.158424642403426              2.3543951510958347              2.6658849372328457
H              1.6274127838675059              1.856318106879596              2.902105993871691
H              2.207974172095554              4.000779930621272              0.6493509241267182
H              1.5311371915278909              4.219319285081101              0.5141688301850965
H              0.9116526177086278              0.9683750934314743              -0.35671518805269736
H              1.0453655978428622              0.7504707480085387              0.2970199586682343
H              -1.8224997606186872              -1.2320701205050717              -2.552368699298628
H              -1.724863156346367              -1.649644487037124              -1.919600112790902
H              3.423373921477831              1.5314652630968628              0.9098607071880204
H              3.9572043465007805              1.9307588543796006              1.147953185377595
H              3.9578989588244364              4.6120881992812786              2.9290751890079263
H              3.6828682883403845              4.02191509588406              2.568990678140979
H              1.2104568562927749              2.4579987133917784              2.7154284233180452
H              1.7630732597933219              1.9379560940864151              2.4544962157968877
H              1.9027289892350603              3.833962966428987              0.5826643898293481
H              1.4044303575174955              4.166404490854666              1.0008567549321232
H              1.1201400602273588              0.9155455110510812              -0.5251906247414929
H              1.0438039480228165              0.9248927734461352              0.22314770994873706
H              -1.7150146594888962              -1.0894270839330307              -2.361479026848672
H              -1.5734649962802354              -1.622248427072403              -1.8576222617014562
H              3.793114544283908              1.5558560470245693              1.0699920758726194
H              4.103986077003724              2.195433658633165              1.1953884820564586
H              4.302526163205396              4.726629263831474              2.6061732314448256
H              3.8270943189486397              4.142731267683491              2.6308598193903516
H              1.2842384361846033              2.3343929099622276              2.7649562581500056
H              1.5490918902964226              1.8551208882544232              2.269424879431873
H              1.9721531788916027              3.883386294554053              0.6573639450363724
H              1.4588235184472962              4.218124059607328              1.0849374962143477
H              0.9651785246027085              0.749024744827911              -0.5850981781287081
H              1.123943834522385              1.1232853149499598              0.04509424369560709
H              -1.7285495083900506              -0.990112605747157              -2.463031631924667
H              -1.5715307073928033              -1.3742958152483151              -1.8971419520911517
H              4.024262672404048              1.5487570164449622              0.6505813945462675
H              4.19063760049954              2.1903386740755146              1.0205827147671955
H              4.280799089397793              4.526926145860496              2.7748187376854725
H              3.6662861533274853              4.11528247291986              2.8219531414076657
H              1.3820708424685573              2.4545341773957827              2.7381025846456466
H              1.6132221004128289              1.8771827320942018              2.30707891226523
H              1.9705426878212602              3.80917172042129              0.2291960168461805
H              1.675120689106083              4.053514436148679              0.9083657373050457
H              0.7875626668971129              0.9869692392295238              -0.48346967104900085
H              1.0813422782033442              1.3056050407262296              0.13522349483173637
H              -1.3739689788002096              -1.2455629381538222              -2.4487654321354193
H              -1.2750218225193082              -1.184280697580369              -1.6093847036823887
H              3.871058261135029              1.618459098040957              0.5785539017443314
H              4.335984915660586              2.0850262800655996              0.9320970300591469
H              4.339664057410246              4.3100074458439614              3.0120321253296245
H              3.7552716224464526              3.8645251345840816              2.700584134564259
H              1.1989714650714152              2.381656099720847              2.5508596942009394
H              1.845975892617783              2.0132599093326737              2.5336105174488575
H              2.0010686919184892              3.9932913929202893              0.13463731585304067
H              1.7221762094552895              4.035910042410613              0.8801302670133316
H              1.2586391681413147              0.7411339812144977              -0.331747730363511
H              1.0432467058901664              1.4524504553350845              -0.12835941619420102
H              -1.3401717396311446              -1.2327296585955319              -2.3089931775776957
H              -1.3643401080803423              -1.4503136362965547              -1.5433343881951882
H              3.944699802433114              1.5224844864326428              0.808414941120019
H              4.269230091594868              2.0449936929936032              1.1281702059901373
H              4.261922527168354              4.332080387160373              2.6985861723132136
H              3.6928900279071044              3.9405158517080965              2.9720571829800155
H              1.224260664129284              2.406857763781049              2.647795984053075
H              1.6251645816701092              1.923563197616566              2.977346516370364
H              2.2846638443897795              3.8341588481029643              0.3844947361714576
H              1.5465468635999242              3.7474645726364986              0.5730490613902954
