72

H              2.4638584723552075              1.4676098683945105              0.7262435630533122
H              1.7999072709677904              1.6106278747739644              0.6484473848991692
H              0.05052746905428517              -0.35713456769439655              -2.0169122722951953
H              0.38609497341181753              0.25224069938703303              -2.349495628696314
H              4.9688809847300455              2.2218858541536335              1.3179631449228928
H              4.8488717257418985              2.680850830870826              0.757506698474563
H              4.465555803815715              4.5769928805415105              2.9646649991108056
H              3.892371649421702              4.261299420354394              3.283681769189386
H              3.1843619368992337              1.5952229135065947              3.274970385380573
H              3.2049530222550855              2.1920765365644934              2.9172777009674697
H              3.0760730873851907              4.58086536984643              0.12545515999559353
H              2.6883054029279068              4.358600455140009              0.7184793142105296
H              2.292440326762788              1.7769506920446088              0.5599561658226125
H              2.1321763071639745              1.835557148562299              1.2298875383133003
H              -0.16994251859472037              -0.2824797662455949              -1.7132261920865184
H              0.20539131279867553              0.06876669097127819              -2.352769944579884
H              5.493472979279206              2.3155392854339474              1.1060939098751794
H              4.951718865784755              2.530247719197467              0.6384809483185074
H              4.524953605490872              4.627200312472607              2.9406068472121865
H              4.103852473364082              4.0479322948098              3.0961779591441756
H              3.125104146633985              1.7900425990403972              3.391705358230202
H              3.1894879556757894              2.152367850726697              2.701773293126707
H              3.2359542650141244              4.400596857634151              0.21064768437743003
H              2.6124134323053045              4.518271014588104              0.6540958913516982
H              2.4238583813013483              1.7870393288179944              0.5068233641239357
H              1.897733510394713              2.0407653273108046              0.9561028489366838
H              -0.47359335589971563              -0.1330436449741929              -1.7155313707189377
H              -0.04546589615990333              0.2110172359252315              -2.306352961355791
H              5.110051105214346              2.231632111807554              1.0407317026364016
H              4.873527006704107              2.373270602402309              0.3438950391668695
H              4.14254593795732              4.483816798927472              2.9974771753018254
H              4.089701137545227              3.8062848633885924              3.368635195718025
H              2.901714821821104              1.7904480671054135              3.3554072425856254
H              3.54721539962567              1.897707652635284              3.0899750485630415
H              2.898292309145145              4.265983100434729              0.016098081965140676
H              2.5537685136928774              4.345704775005809              0.7020594544490972
H              2.2876339099780827              1.8217857578488919              0.5317878851767875
H              1.7804332702542405              2.3150843587910392              0.8812856918120572
H              -0.08294256782586122              -0.1479251671562251              -1.6299513801343686
H              -0.051627522248961964              0.2662890463005259              -2.1499599192289556
H              4.9491549555251275              2.2407660484863734              1.2059580557728153
H              4.6740883635263115              2.2371972065692067              0.6109216956835982
H              4.217265265882837              4.52330174205201              3.175438416673595
H              4.091097773542165              3.777586723003286              2.913781963352638
H              3.261230288262299              1.2664283397614124              3.536796257840566
H              3.191681259263214              1.9541625579944608              3.322654084040907
H              2.7620676736975556              4.34758470061485              0.13455977414493822
H              2.7459601143032484              4.711259440637243              0.7800570805074872
H              2.1785246758001406              1.905213346267971              0.4627087446156914
H              1.623673180119285              1.8530088193067968              0.9377964557722364
H              -0.11407821278634893              -0.20545476028509665              -1.8130658069355894
H              0.009328568090793212              0.5049617120832366              -2.195953547657255
H              5.21600735470773              2.2983581687819954              1.181192685823496
H              4.454435296950165              2.3667801887846056              0.9383878726002605
H              4.141753117787065              4.819832604222875              3.0474753672254336
H              3.9871444970209877              4.053443029939094              2.9280954996131734
H              3.2266357963597128              1.4783221570397143              3.112222332271943
H              3.4813723217709978              2.1867602846207106              3.170316730244718
H              3.04902608407947              4.242272911189942              0.1725741081400066
H              2.76410657374618              4.820480854152973              0.6083843837457942
H              2.277393519584472              2.1213915365182974              0.30838349882896865
H              1.727364503350413              1.7913228266684351              0.668377404456302
H              -0.07290876245270297              -0.32789969623531007              -2.3194660405533924
H              0.13464347309492142              0.3944563510705342              -2.262411563093896
H              5.210595947693272              2.553791999320036              1.1088272192444835
H              4.659615560783853              2.3374457542078306              0.7068228844037063
H              4.003101873864112              4.924697602798156              2.8649708916060064
H              4.036926455484047              4.195153625738954              3.0548942290100154
H              3.154592545437192              1.3941257146286903              3.2433494589969882
H              3.4584488161771647              2.164650199723471              2.9500024146104797
H              3.2628028662540083              4.276505810362084              0.22768752658503758
H              2.7245303545366206              4.631063060497515              0.5933778165919364
