72

H              2.3070466397609795              1.6407906617994332              1.355484946458427
H              1.7820043041914053              1.6624595189128357              0.7694386957356878
H              0.33957689397581114              -1.060491625686452              -1.999428517518215
H              -0.3390371721821944              -1.0806147622363158              -1.9420004874620642
H              4.665074495445463              2.3317970644747614              0.7669711948661535
H              5.061328161911207              2.5264406380579363              1.3787299623736884
H              3.7589762998347678              4.627933716584302              2.5250173531022044
H              4.345118239573319              4.838724814091274              2.9391296278920986
H              2.709184274398406              2.4227541314192957              3.3931575001632575
H              3.359780021787447              1.952396101158827              3.683648523416216
H              2.591534591347166              4.623540219579879              0.40520632770194864
H              2.7836278450114076              3.89403234611475              0.2643238533156992
H              2.1690454171995484              1.4232820910467516              0.9516086711768773
H              1.5538773083436181              1.7298848280952621              1.1625619283100879
H              0.4198780296701528              -1.199796706381227              -1.9754207113049358
H              -0.31808299692698855              -1.0738630972239747              -1.800227702143347
H              4.870856188802198              1.9420598248108              0.7460872022404936
H              5.06255990542009              2.338751528491993              1.285771132378393
H              3.7341153410005568              4.629611631768388              2.7687300233271266
H              4.275953181776611              4.614585409812604              3.169930335780964
H              2.782362884686764              2.1872764775745543              3.4684192042248885
H              2.9743473112928798              1.495361413511079              3.653417887109542
H              2.910068358331374              4.635837791577329              0.24083685840413702
H              2.781220466964275              3.8845142765910694              0.18593669462059434
H              2.069892944326535              1.6755232807223268              1.2862607599199476
H              1.6351975687934213              2.1906604606539264              0.8672660426194654
H              0.3755555071387324              -1.3473065954046735              -1.6557541950952124
H              -0.3578932920389129              -1.0650049464173659              -1.6730320570536825
H              5.049566502631326              1.9055067426563104              1.0369119769388002
H              5.147551242868319              2.5588278784197125              1.4380969934184193
H              4.3314603917816346              4.590694167440502              2.5806638059771414
H              4.359497139045635              4.729470072283305              3.340814754141977
H              2.338844671276219              2.3211761202525287              3.700247307218511
H              2.8991651424606464              1.8927065848417957              3.8350655504716435
H              3.08725408380356              4.614246915806667              0.32684286461418083
H              3.06101190183659              3.8932447295772223              0.5139049557080486
H              2.1424097031414213              1.427837490999987              1.2974154236581816
H              1.6397928956886874              1.7549458187183598              0.8522097183841216
H              -0.05864181316484646              -1.139473800304392              -1.7321593630786287
H              -0.806779331487363              -1.0461728425011987              -1.48992981223024
H              4.761202742142544              2.136606409052077              0.7362527169488057
H              4.891205492554388              2.6558786804928305              1.335930226296173
H              4.244621970813839              4.772929220798143              2.5246541437140984
H              4.2660308223746              4.996963652201804              3.2454606971310422
H              2.2916661750292344              2.5706431496574176              3.768020202703909
H              2.9452235120846213              2.1911286452665877              3.7313832481674134
H              2.9228668943499145              4.307383399680671              0.18183914491825737
H              3.0961158180344537              3.8881227338654107              0.7639420187186081
H              2.397962881516854              1.6483383738096418              1.0975325133458516
H              1.682483831955414              1.5525857306203124              0.8551967014727359
H              -0.045890479339131006              -1.1374057980100813              -2.133816973318083
H              -0.7452101856359613              -1.248811215235843              -1.6896725304715496
H              4.704551251023186              2.103822464663087              0.8064823648247931
H              5.163407623164244              2.666468571911453              1.0994780531184007
H              3.877626038974256              5.023704213397133              2.3899836983119176
H              3.9030211986852614              4.8166643245324945              3.062938050157563
H              2.3007866442105684              2.232049771513125              4.042626969635362
H              2.762846035554719              2.2594845862181856              3.485608075588417
H              2.7662859953527463              4.205372563011719              0.2590329623397441
H              3.0096364129473203              3.794742083979392              0.797917688804133
H              2.477448232582462              1.48533560360292              0.9165678991971281
H              1.6804623329851465              1.4442644162566713              0.9035437954970419
H              0.28874989109682286              -0.9610797205343871              -2.042541239379688
H              -0.3454163978105964              -1.3053493858625511              -1.9392462898051255
H              4.9070324942418075              2.034578161361527              1.1541406764427908
H              5.105111975511728              2.6813134612496663              1.2117867752149833
H              3.717646989055308              4.791510702797237              2.3680127377647633
H              4.058810808220869              4.6979923021306425              3.0520129658041824
H              2.399956635485826              2.7466194540210336              3.5974947565241013
H              2.8931664427769297              2.218650198234757              3.7481184250137574
H              2.485691969417407              4.260786669195836              0.4530692190669644
H              2.9350303727319234              3.6432574172339915              0.3187787825292116
