72

H              1.7279439589416563              1.4758103011523058              -0.3279672578298331
H              1.2328509098041116              1.110562451537323              0.12191839680273191
H              -1.5410389931134592              -0.4285749326006983              -2.522446515605466
H              -0.8917212050130106              -0.7206411461082177              -2.2176894353246985
H              4.478895515097855              1.6908289216167247              0.6135970279913272
H              4.6217430953192595              2.3447743887366994              0.620233792255458
H              3.663786374709553              4.41368790104442              3.160828841731589
H              3.837890021560182              4.546081314217587              2.52182690754214
H              2.1277666625803877              2.0994053897800367              2.410340904220341
H              1.911558420867393              2.098102476863095              3.1603582647720856
H              2.187250464099428              3.7367192648391128              0.4836673789427685
H              1.5845258008287924              4.072197496842865              0.5898638252407387
H              1.5767683632592198              1.8461352816148227              -0.3406554243174152
H              1.2534269828141678              1.2671758366675976              -0.1009492190222015
H              -1.5721225093930715              -0.4892451020707265              -2.342493006247357
H              -0.9158701534562276              -0.7589883202159804              -2.1490545590760335
H              3.975976685117279              1.7485398856660743              0.6578493695029587
H              4.420409975364599              2.353899945110599              0.7678420219278258
H              3.6515902046143682              4.028524650732481              3.024916860093901
H              4.044382087387906              4.465787749025046              2.5926436980603444
H              1.7592119956290464              1.7788136529613114              2.5481269834528146
H              1.9941070572584858              2.1046954747132065              3.210462313354918
H              2.0159909079860183              4.0713082397335505              0.49307260223356186
H              1.4028409763859704              4.028038213891608              0.9131268904586656
H              1.6885506826624954              1.330673169648785              -0.3792889037796419
H              1.470434303234407              1.2866090902461313              0.394261982519104
H              -1.6654611621321607              -0.2656798743354064              -2.079552712261318
H              -0.9382592111850768              -0.7163834129560952              -2.0412877887660454
H              3.9651939100730917              1.7778986241632473              0.797110967914854
H              4.206808474623454              2.370957400611986              1.1088749087828316
H              3.775512821171123              3.9471784788646755              2.865702581395085
H              4.106766546781754              4.4713546456299404              2.515787159399298
H              1.7016607722203103              1.805906248474855              2.5092089660817853
H              2.129262168578125              1.7978255708410127              3.201334361332111
H              1.8305600617533795              3.852878383407975              0.5233313297356375
H              1.6574952295731655              4.184477522133494              1.1775985999078404
H              1.6135676269886108              1.467082510075885              -0.24469075176328836
H              1.4762670301570489              1.099762558794488              0.4069288606626388
H              -1.7485178907153507              -0.3236408110494995              -2.2798879632225915
H              -1.0613875628859362              -0.41039638022716973              -1.9497329769966913
H              4.203366621296936              1.728990145188736              0.5613896938030565
H              4.507513131570742              2.331196206325558              0.5906729719049859
H              3.5382285127845936              4.161709872373671              2.937130568836537
H              4.085471965528594              4.379188436728418              2.4373145319939273
H              1.9284155684869564              1.951492585982384              2.3171447786156767
H              1.9287497429354301              1.7329825545039474              3.0208819921415726
H              1.9017885970190775              3.8611914910092597              0.3902403538375219
H              1.7141685997058045              4.3882298376898605              0.8355415801088542
H              1.9339955471472117              1.319677978665766              0.08957114375523166
H              1.2357103932861924              1.00507123984588              0.190896772529058
H              -1.5085864555177213              -0.35513678056715337              -2.4653050515876047
H              -0.9665405715796545              -0.3937735475403936              -2.0272338408759754
H              3.8263404047417073              1.8391782785839832              0.6134662842795439
H              4.458548512779855              2.0835036797852466              0.7496711549357165
H              3.6090298086436903              3.9862051102259026              3.2510419488435884
H              3.8698605536559127              4.497169387547462              2.7565784908622173
H              1.9767635375799284              2.2606880038373243              2.2683744077433863
H              2.1076123111399228              1.7324358985039543              2.7513168622239417
H              1.9374193263030801              3.8761574996533317              0.0841937531835744
H              1.7008782928349726              4.108949169915968              0.7570598732866239
H              1.69520851102811              1.3111253905933788              -0.22931692905270193
H              1.3990750354543164              1.1896127787132413              0.3957602363961802
H              -1.2771095769471164              -0.584342970956544              -2.3537505660674434
H              -0.6514593520544075              -0.4380435322437903              -2.070678842980084
H              4.31707460359631              1.6706543693110385              0.7808326034080862
H              4.680457875044249              2.3549768355869425              0.7229803287763483
H              3.703017947174591              4.254806908368979              3.158214089899914
H              3.9047457181551186              4.56816992333461              2.5254729537528826
H              1.6027100212118974              2.093985986976723              2.5858668071579602
H              2.210939205483391              1.8609737629023064              2.909186727184811
H              2.112365855539635              3.810799991921283              0.1589780595465695
H              1.769284904360282              3.9998728333064446              0.7820672373518964
