72

H              0.820904219773454              0.9622807685136799              -0.48244370189806696
H              1.5205910282637731              1.1381612421795684              -0.23432321231978784
H              -1.5600188892183815              -1.4445079443833846              -2.27716643450304
H              -1.8062690555559575              -1.6141233784924518              -1.6684306674275924
H              3.702234303160089              1.4405208597449044              0.811046633338921
H              3.990121884570297              1.7613635733893              1.4557632612592428
H              4.2387247458313              4.2393706404887155              2.688875967187761
H              3.6694395194112532              3.9034770258714278              2.9908362317386596
H              1.2505967510333038              2.21417254836322              2.7396322958087844
H              1.6404096336745349              2.1162699096536115              2.153809734939788
H              2.0847154494194897              4.015177015185082              0.3275484270005047
H              1.655769384519591              3.864070323243604              0.8791623693651783
H              0.8728287954331181              0.89104858298861              -0.32077761245102504
H              1.4867450085039995              1.3485406491902987              -0.42772441577248416
H              -1.473890502243932              -1.5667206849477844              -2.4229999886032516
H              -1.593866244547447              -1.443588573278526              -1.6542325146625045
H              3.959956069550274              1.299114570999863              0.9248812886858413
H              4.3516228660134955              1.9196081339061808              0.8480263134472265
H              4.109433747603704              4.573432208872355              2.414756834916344
H              3.80549783948725              4.086778872791831              2.917640064111194
H              1.2772663828236248              2.2912913663615857              2.747508870148111
H              1.8518964994187792              1.8814337279203432              2.5455270287558407
H              2.2932682917320255              3.897708981553957              0.16714041113416622
H              1.7197404644913008              4.032438020091158              0.5551513398399693
H              0.8129885674141144              0.677094050059714              -0.4811011762687783
H              1.3783272536875617              1.1629918208579544              -0.3928186427314922
H              -1.510900464599688              -1.5686966518035972              -2.6012523420057208
H              -1.6917527535534982              -1.58303544032837              -1.8514968317608411
H              3.795577170801258              1.2827781218233263              0.6041686963349485
H              4.215446318304842              1.8794414958545553              0.8758613223045454
H              3.933964771321405              4.48815423885238              2.62835237564526
H              3.565767010114111              4.036919038800314              3.033681032169692
H              1.2609017816079453              2.3989975984661984              2.6030532179160737
H              1.8570992636975272              1.975797453199953              2.8568774585937944
H              2.3949995569905234              3.889879646661269              0.05830384207175678
H              1.8068020536181568              4.063659591153092              0.4722915197113643
H              0.8497212872526133              0.5827251122519076              -0.5674728807992012
H              1.2655840607285567              0.9137725184901229              -0.06326126204831374
H              -1.4219800553416437              -1.6676917791186847              -2.528481330874412
H              -1.3519555390150677              -1.8824853260419814              -1.8591908229415062
H              3.8280043869322493              1.2643400543889034              0.9454178945877287
H              4.339051738869362              1.8821515108413582              1.113865568596476
H              4.067975961869957              4.446599479731429              2.5507441555295554
H              3.642658248837704              4.020008362166168              2.9709870736878634
H              1.0329000146300735              2.184561385830561              2.776290383615522
H              1.7303580520416992              2.1166532165956644              2.6806533565955846
H              2.3304003568907246              4.135492512185246              0.40921959356156834
H              1.6516553991127194              4.1286344631832606              0.7699912048541051
H              1.0435575220262359              0.6195787244480184              -0.5979334149813483
H              1.2204566201549476              0.9407273285408143              0.03899195578598703
H              -1.609958909099766              -1.3149485294313186              -2.2658326849862087
H              -1.5525287109250492              -2.030217350630339              -1.8644944912566874
H              3.619748911551955              1.303072710341337              1.0689080379738019
H              3.97466142294963              1.994655214507876              0.9681804210227636
H              4.104401886239956              4.490888391814888              2.35963502599296
H              3.911536393696206              4.117939220432644              2.9702165585556166
H              1.42292802384651              2.2689309578444887              3.087076079906681
H              1.6458063524589706              1.9034682627162123              2.4603460834955975
H              2.297716130413823              3.9403235355669217              0.6984769959281713
H              1.5641241511012611              4.131387392349415              0.8414165975542928
H              1.0727836647441717              0.9760752659104179              -0.5717932847886387
H              1.1988299766060948              0.7107426411116988              0.08041665495444567
H              -1.7477968008228288              -1.3904413701511953              -2.3665615349996143
H              -1.9105494084277463              -1.8503262060281318              -1.634669144923487
H              3.497888510260034              1.4227769940031756              0.8409545158581752
H              4.057299268110152              1.9863631992714321              0.9923975173830747
H              4.068786453628686              4.530808238880509              2.544200667867993
H              3.98857915996492              3.836267597352371              2.7962069706908275
H              1.534684814268181              2.0699296752073186              2.8052531679772685
H              1.705225064017485              2.162500701545137              2.0518618605207695
H              2.3143823182211274              4.224571168994421              0.7376046581749096
H              1.6188109250063574              4.3852324255548565              0.9638072803664218
