72

H              2.3539363259565076              1.6815937931666347              0.946079241702365
H              1.6553335398230702              1.5618524672878695              1.2435038297574106
H              -0.02662859369687839              -1.0931395953460086              -1.9398412944178554
H              -0.7275641292915299              -1.125674949662766              -1.7744963721495386
H              4.790544609241327              1.8751376178801005              1.0928188980472133
H              5.044631120561986              2.562573788780676              1.0115532936748648
H              4.131976836240611              4.8745113293578894              2.602391684859136
H              4.082634059867979              4.660662520217103              3.286205243189755
H              2.327368303447723              2.2150654866517328              3.817310255268644
H              2.89004465741987              1.9235260503738312              3.4266863562741094
H              2.821014570201724              4.293119301508285              0.29772750347688953
H              2.9770371958056194              3.619960394837053              0.5181897585423945
H              2.2722693106999436              1.908394608189717              1.3347274274228245
H              1.7562499726617857              2.0790781777439222              0.80632176612327
H              0.1368538943111429              -0.9868876564334298              -1.8084834368500131
H              -0.6534974290683645              -0.9312197967300724              -1.7277058513468413
H              4.552762148590561              2.0724306622755835              1.1902470146539248
H              5.008269501546694              2.6519528845389              1.3547897140289953
H              4.073410040647548              4.914992051215098              2.4258838368081963
H              4.450568854765341              4.850230173212863              3.0747254263510557
H              2.5426485741159217              2.341769174354126              3.5866814436874783
H              3.224494592304493              2.2016271079748875              3.3303239921268406
H              2.956744847273737              4.464587553412715              0.5747015275567516
H              2.9362179909916946              3.7130246126934483              0.6077460426755594
H              2.3323521572799297              1.5758743491480678              1.1076660215558967
H              1.8002432861646167              1.977105079789699              0.8065266283373369
H              -0.0010632071782644525              -0.9867694059244404              -1.910053602329051
H              -0.5885581421179408              -1.2687980827966807              -1.7414805833806506
H              4.606950366156963              2.0373711385666344              0.9774697747100676
H              4.786945639559424              2.662000916324862              1.1817301560631703
H              3.808294548921285              4.928625831072978              2.5011243676308275
H              4.280811044607246              4.709999266599106              3.0437069223593314
H              2.848704986254768              2.507024148946945              3.601825270556008
H              3.0531703840665223              1.8472309977358445              3.1508188357919313
H              3.0065206337097035              4.380590740208402              0.11676261826717461
H              2.7730397798205133              3.870065977723924              0.5738181330487175
H              2.3158471021986613              1.6494966934248818              1.0098964392266947
H              1.8899923457452283              2.1431401974820523              0.6841854776428619
H              0.13041496969056857              -1.262171442328336              -1.972732860732579
H              -0.45649858637003743              -1.5860197163684329              -2.071505976506027
H              5.056246190642335              1.9487219504713924              1.3763138366667897
H              5.278300604169004              2.784369584008739              1.3907421320571196
H              4.049396608084171              5.000111252084511              2.487410806740718
H              4.176887613196068              4.4260766315437055              3.0188129308630423
H              2.395742408069719              2.333802978873415              3.7531876242351765
H              2.868911070661066              1.6795229694950276              3.453493631242104
H              2.78954708196301              4.3852118687597255              0.1850581042587988
H              2.971556103963416              3.7935427139946967              0.4515008010799583
H              2.1624920956942897              1.2115354938636815              1.1608083430072302
H              2.0976284034707544              1.9179613592262497              0.830805453292537
H              0.10285487826791474              -1.2031256673776993              -1.731202545941685
H              -0.6070624616655044              -1.5536868614575747              -2.014807440963013
H              5.098502838581038              2.202337636256826              1.1614267081284502
H              5.0750864866985745              2.924665798942721              1.3411550167576858
H              4.4053922336012326              4.604965880891552              2.4809063479386015
H              4.404908900178546              4.706710164428968              3.258046721831843
H              2.267087345415461              2.462491928588753              3.5581279136327972
H              2.9364962206256084              2.151541767892765              3.7721465867231414
H              2.694103321565963              4.471647270255596              0.27447473532607214
H              2.7829158983492293              3.72054656359316              0.26726101199772273
H              2.305271516589539              1.6106893497183226              1.023358441598335
H              1.6741790103014547              1.6869268459536042              1.327241592891524
H              -0.1675684694960075              -1.29865954483459              -1.8808019389428854
H              -0.9928166604994774              -1.1446745315317752              -1.8750683778999175
H              4.718486328690083              2.4157599104158907              0.6409639021850246
H              5.182572354648534              2.553934830519708              1.2156724372339103
H              4.203932924356992              4.844060012136352              2.5295664355098952
H              4.361330839826035              4.8459360408629655              3.232372851237258
H              2.3911088053606906              1.7545695822617002              3.835905227795018
H              2.9831535456943628              2.1739494450776693              3.4891560801830104
H              2.6898818156237185              4.464982269463882              0.2887114372170333
H              2.8336931387692323              3.76327987196594              0.6232501611599713
