72

H              0.6602000577068822              0.9204164364104356              -0.3443179470661258
H              1.2866574560359614              1.001717883952857              -0.7211436349429688
H              -1.0148702035273423              -2.488833310075194              -2.16205773739316
H              -1.6475901499885452              -2.678172682403489              -2.2100140127937804
H              3.5001209050281092              1.1384875190174413              1.4605579139733187
H              4.109717143055339              1.4075318499166172              1.0469478579261076
H              3.6639111781050855              3.854569689078383              3.1422234490807526
H              4.271755893107282              4.041762762131273              2.8282193703168135
H              2.0266663664767868              2.3233514377561484              2.558455660275785
H              1.2091768609206317              2.1544700417924965              2.4978294328478845
H              2.7683879407691756              3.4945095735207445              0.062286131762157415
H              2.1276601422588084              3.768171634372696              0.2613290113247416
H              0.7792493878794423              0.8758951049272038              -0.43643920296995736
H              1.5212868780684259              0.8746726786262685              -0.5742082443899678
H              -1.1581463809924184              -2.584018357884832              -2.265813130611541
H              -1.925341987594751              -2.933637632839523              -2.1476731539962617
H              3.876633125164878              0.986043160199772              1.5014440486600213
H              4.536358201146671              1.307608958994215              1.276742352273172
H              3.6583437016171785              3.8703614157786337              3.176706790524876
H              4.400668963289057              4.081518272397868              3.024783822409327
H              1.6390240119940238              1.8864179921612574              2.320052714990162
H              1.161662902932722              2.5184026482849204              2.457460001585859
H              2.6316715237322885              4.136894906445588              0.0883464030155753
H              2.1080472695386367              3.8265329465028928              0.48927870154566827
H              1.3951833460853562              0.8378661811126766              -0.8540991953461678
H              1.35913645915482              1.0426456485057283              -0.18038383709869985
H              -1.18533277515247              -2.3076904045699265              -2.1914340787916005
H              -1.7546585864723723              -2.785218741891786              -1.9429966124618665
H              4.000167950653283              0.7778852659508771              1.3691863043624215
H              4.448014411883582              1.32622732549954              1.094759279384064
H              3.8820880683007086              3.6498378141778636              3.267545094044789
H              4.249989661940122              4.206283765191508              3.035571993817887
H              1.38226312952615              2.0857650675450743              2.815211540018366
H              1.1776633797863731              2.5357443589287176              2.2248663763478778
H              2.3829192976894555              4.25348355319203              0.18339408749551944
H              1.9823838690164384              3.6429178105005926              0.1453543183594356
H              1.717582486501557              0.7633239993882615              -0.7267354338989362
H              1.5101013381659474              0.9633791348760756              -0.09100761394953814
H              -1.1858043417316384              -2.301576720019984              -1.9440975364702011
H              -1.849819785184166              -2.4618092637750193              -2.003251569396457
H              3.8750609947618697              1.2137494051213378              1.3953288888686286
H              4.384506218476003              1.3586904800842599              0.9453393210374376
H              3.963426559737549              3.8153333052914626              3.1745011257802562
H              4.577646792774008              4.157547869756606              2.915361083827265
H              1.6528444856753115              2.1005963566046466              2.7777032347940187
H              1.3931141591907312              2.3870096076797482              2.1947611503289552
H              2.7781851738558214              3.925332976432313              0.2841395816209228
H              2.1273181498832443              3.885182294842197              -0.07325415737765228
H              1.2025014371310239              0.6459078695943027              -0.7682623683774173
H              1.441414893049315              0.8618909272739658              -0.13031439009006102
H              -1.0924713030392759              -2.4711983066242116              -2.0630905568334854
H              -1.849492900739684              -2.4294888355334994              -2.1720526528910433
H              4.103070671082202              1.0085044820244877              1.3200880486254762
H              4.584750885817728              1.5863644713826186              1.272907912807454
H              3.7274829932497457              3.4919347249980444              3.205407588941045
H              4.070753083114898              4.190118149449              3.096577047861036
H              1.2480077974127428              2.0758390151790875              2.84516904746238
H              1.2084921133287478              2.340499988628526              2.167886662918116
H              2.839036199149956              3.8083823945459963              -0.405145827779372
H              2.341355187366209              3.632198897455833              0.15894877687049136
H              0.9871518250129048              0.5967606213311606              -0.5247029333123809
H              1.658523234882793              0.7841119705689623              -0.4574253353614703
H              -0.8549121328563067              -2.5242150570184534              -2.3319282824722376
H              -1.5594242856955476              -2.655911175928873              -2.220537996186185
H              3.919300303034741              1.1912608092683707              1.6098595072176225
H              4.450492113142017              1.2721375055003634              1.1348337418128465
H              3.652203985520706              3.5667590276189394              2.9748500743472817
H              3.9944493036773117              4.197578683846689              3.003524172770804
H              1.8067770363562436              2.3061848455009426              2.636889147234103
H              1.4780977374452526              2.3834756709395215              2.0844485723732684
H              2.76734693157425              3.5790952853678903              -0.21736418494561274
H              2.2619659138065975              3.709033583303165              0.32338583684217415
