72

H              0.668615838029594              0.9759696852435881              -0.379170237045229
H              1.2494509140796468              0.954252506939414              -0.8445293724674554
H              -0.9557322444446926              -2.433834503418491              -2.246710656476047
H              -1.7486249967832268              -2.6587379916112974              -2.2467526538346485
H              3.5823898159970007              1.1563345330627748              1.4321250611339476
H              4.10490588613505              1.4229463893609866              0.9592359372340261
H              3.6071780949713648              3.88880577218303              3.1487095578415354
H              4.275083158244133              4.099742295609771              2.807747780761604
H              2.015044064205061              2.30525360361157              2.6551018252932552
H              1.3632742485313003              2.237361343947787              2.388295938674131
H              2.7895034749213026              3.5346493777190457              -0.007791984855737211
H              2.169112413251233              3.774349134163964              0.2711892671071221
H              0.8816146717614027              0.8014276705793151              -0.4834421558640935
H              1.5477405636091495              0.9745763716383812              -0.6323483440097131
H              -1.1527482467117594              -2.6216280407857093              -2.245700663031741
H              -1.7474010879816448              -2.775611301569894              -2.0927005989021126
H              3.8871388370828948              1.0327484984622637              1.4590445448831522
H              4.437509188422625              1.2978979326227145              1.2111749007437698
H              3.705786843523387              3.791442297254921              3.1583326270113017
H              4.413334874709369              4.02782551717662              3.0251009085655327
H              1.6482481077493605              1.984220506307229              2.2927825007572764
H              1.1827378478721993              2.461049917182618              2.4679996447724237
H              2.6494457507329225              4.214448966248835              0.10377519160884933
H              2.148842700001004              3.862147607891241              0.5633063648452554
H              1.329011756963044              0.9539325379208079              -0.8455272410427921
H              1.422273415333172              1.0114588616931497              -0.0908253543600095
H              -1.1779407372515123              -2.3211691106119354              -2.0457847016313813
H              -1.6941639262248473              -2.740612947247776              -1.9021376369454936
H              3.9519661533924535              0.7472736455203927              1.4079241454581297
H              4.398077532753839              1.3292429743155283              1.1926270798999883
H              3.9290086677716816              3.554591711061426              3.2858273109105163
H              4.355813498532633              4.229395338045965              3.012605718901683
H              1.2793242667726754              2.075975740049022              2.8638672621736947
H              1.2320646313124255              2.418223714416121              2.242877645280891
H              2.42460820963549              4.19249641774142              0.2658462269467902
H              1.965023299834305              3.616929665125648              0.13631584467212376
H              1.6092073578174193              0.728697055960761              -0.7618383935401295
H              1.5274257268963047              0.9901525779867603              -0.05357417080247333
H              -1.1804988853477              -2.330069008164092              -1.9761383867288844
H              -2.0251225618523954              -2.4752986209220675              -1.9641663773969849
H              3.825739860765036              1.1724482324583676              1.3650736194721407
H              4.4248362264563195              1.367826648250621              0.963083110731104
H              3.873751056551271              3.894872349855818              3.1509612386173287
H              4.551394694448733              4.144178215800056              2.8984964346492297
H              1.6887356649361756              1.9935868510455528              2.7193087541249015
H              1.4151519509614405              2.412160725083675              2.169834331782409
H              2.7257883515395553              3.982645870637385              0.2625914132276725
H              2.135559635439418              3.8863558271338636              -0.07871069625276939
H              1.2341171837901088              0.635299354332746              -0.7689290170649064
H              1.433853694395988              0.8930644328276995              -0.14231928402553568
H              -1.1838330258040834              -2.418447788653634              -2.137471412793296
H              -1.8877841987253856              -2.4792006495677894              -2.180258770425396
H              3.9718357582541812              0.9852435093302107              1.2866296252814935
H              4.612619644875015              1.4796042452337923              1.2465622217279557
H              3.6956638171663294              3.534316889287497              3.093194888469342
H              3.986190632058081              4.190550423426782              3.237118375781133
H              1.315505026339524              2.056339743717139              2.8576546108628933
H              1.1966140787958788              2.373277442378093              2.1823359502460282
H              2.728267533139594              3.7735477630026675              -0.40592348242765525
H              2.280150344950417              3.698359785539941              0.11912226538688916
H              0.9461013779539978              0.636600789379342              -0.49272614442594487
H              1.6972882181675326              0.6715693639448498              -0.45628368715319095
H              -0.8371839109963781              -2.4615593839232033              -2.335531889307915
H              -1.5920616179451719              -2.6827390923074397              -2.2191872596850057
H              4.001270006053159              1.0717586999176802              1.6141086992266918
H              4.487813431368178              1.3578498916869999              1.1673577462883415
H              3.6308057676021344              3.61519210602457              2.941167223640515
H              4.002506841236738              4.284626591333901              2.990766588361368
H              1.8265680151785884              2.3338805160406473              2.778911870550633
H              1.42150610822687              2.3581978288033074              2.073734841937024
H              2.732742827426233              3.5945872601393307              -0.19951157431481442
H              2.2063078446284865              3.7396830118658504              0.24802142959014786
