72

H              1.3487133853816684              0.8738342634276758              -0.45071079904631817
H              0.9072288696200034              1.0900710537346605              0.13088423170493438
H              -1.1846219960563906              -2.3371057134432522              -1.9238713661253972
H              -1.7473648826003285              -2.739015519902095              -2.3042089375372656
H              3.9414488268910888              1.5180577005702696              1.4936445841243806
H              4.3925390014941454              1.4912036303205602              0.9427773585099282
H              4.117978923977208              3.6850234946637426              3.407373701132268
H              4.392251270546227              3.9799879979826427              2.828057315626424
H              1.5874010730866959              2.1623844757265123              2.705752094088033
H              1.1380831596634302              2.465425927519555              2.1608138080223376
H              3.0048761619297832              3.8376417211437              0.1797635195166352
H              2.3056471375389727              3.5438545539959945              0.08088735576682582
H              1.2485236275150389              0.4422686399801792              -0.07910156472389385
H              0.876087643497451              1.1584595967038904              -0.17253889987044682
H              -0.8502772149142687              -2.4854464884467244              -2.0520933206597753
H              -1.6625182949897228              -2.729395590960084              -2.3214276586728464
H              4.035459210117916              1.4189028212743              1.5699084946865551
H              4.696427012941693              1.6816508995199642              1.1121227812135936
H              3.925138975523072              3.3848552693452336              3.377636595086402
H              4.080466964831582              3.8724899277186235              2.895082294176487
H              1.5081105545217912              2.159897525206488              2.280232861813149
H              0.6952949669163768              2.354914347310487              2.3200976728202996
H              3.0331413553085156              3.692307570346245              -0.1264924426550092
H              2.5846625419767886              3.6114690778911154              0.39031418606073487
H              0.780168348755514              0.8749391902015148              -0.464590278175842
H              1.2087903348293283              0.8557700682288414              0.08562524034591916
H              -0.8037162837042541              -2.532548416783401              -2.1048816926475133
H              -1.3318448215038063              -2.926879006759768              -2.464461983529257
H              3.9077290631183956              1.4153790876694043              1.7716380180640017
H              4.443230757160816              1.403157376543249              1.2753378258095254
H              3.861908183184837              3.4366995608944415              3.275074095527538
H              4.051196942296942              3.942139302286932              2.8337122423748444
H              1.6571648908024799              2.161342566131206              2.449774465466984
H              1.0034579463427873              2.411604762178815              2.21185433129552
H              2.9227111126060112              3.120126229863589              0.004625803482241159
H              2.468299490201562              3.5270649980806104              0.39601713536985894
H              0.49728026474392373              0.597179579050314              -0.2744502520034742
H              1.118266521999384              0.9817508420705708              -0.21094077973429526
H              -0.9060388291625023              -2.718890368499272              -2.1913684334066352
H              -1.608519485111082              -2.879663158933546              -2.422878318931887
H              3.68673977032466              1.5018244090108577              1.5754570778109716
H              4.243844197798659              1.4365348554852793              1.0998782554676148
H              3.806735870161612              3.9552182788842676              3.2521443365720692
H              4.203817164695897              3.761166085435966              2.7243035525861843
H              1.7831557783380019              2.2164190117529694              2.0660660835944995
H              1.2310053381492376              2.2894648229468997              2.5256367832243884
H              2.928666428555528              3.5496726677947406              0.00043606727856755834
H              2.4202204462401022              3.5809031644152483              0.5925432550366995
H              0.9212481727359659              0.5592702796476678              -0.2934558375635312
H              0.7987996732505942              1.2444309176212536              0.07062111330826222
H              -1.107168937033761              -2.700932084099786              -2.194604390575536
H              -1.687829948562297              -3.084538002640989              -2.40114086583643
H              3.850077537458886              1.2830673217831634              1.4711917711576143
H              4.509500000980748              1.191940247148656              1.3054242781913097
H              3.8495984288233105              3.6317887456324023              3.480770397573058
H              4.271846212355168              3.901828021810081              2.947593018350113
H              1.4251697095806337              2.026120060808007              2.2742475197062197
H              0.9227533287518066              2.4588857688273977              2.514715886806216
H              2.7753408906092103              3.892010671933895              0.1194373094554992
H              2.1957513176396173              3.6814913149189854              0.4982058297827553
H              1.3334634348257832              0.7749568763465401              -0.43897408255247405
H              1.1409437482686942              0.8397558714654485              0.24766278484477414
H              -1.0146954697394832              -2.5505152714306893              -1.9680531346646475
H              -1.5420592989470312              -2.930981473512543              -2.153746887949951
H              4.137093988916948              1.028598911343606              1.633333832483879
H              4.637039767707057              1.4985044322692993              1.1678871690173755
H              4.120782976417628              3.6718937058584045              3.462603916449615
H              4.254678128291088              3.9285590842049984              2.7847574842198966
H              1.4936521041934732              2.1980869421940112              2.4685462977137727
H              0.9043938113616212              2.547479229107794              2.3622200524727375
H              2.5947266039492347              4.168951900494526              0.40183665186932244
H              2.176293317489209              3.558562897299725              0.20914306394347063
