72

H              2.229378775966413              1.4397158942053532              0.8928508403637977
H              1.6824762924390577              1.9466551170449564              0.8532842217577704
H              0.3744291499769723              -0.4825161157320445              -1.579172981191906
H              0.13489564979243213              0.14369310845653285              -1.9487095137106443
H              5.3128998712400834              2.3200471306990726              1.4145869319393953
H              4.999270118798729              1.9614922386908753              0.8600850552689105
H              4.130521380620789              4.497931536821328              3.3211808830758858
H              4.027311656343954              4.049466953796092              2.7459383523968937
H              3.2327905747510215              1.2857755801925472              3.3438411457535464
H              3.1637102512655155              2.0366462418206095              3.2535750175207037
H              3.032623866246128              4.085973366306129              0.445269384509424
H              2.772455528724496              4.824881697037212              0.6202372865821699
H              2.164849179703782              1.6729382213488915              0.6120563741888204
H              1.5139915228829013              1.9091182098114676              1.001276194742334
H              0.35354143588108744              -0.5035257457857945              -1.8183459379864957
H              0.05724152061026826              0.13514370816112317              -2.0931635505550443
H              5.6414524607966765              2.440957683943791              1.3416190900070881
H              5.103268875368611              2.0073226962510895              1.2773905941650674
H              3.9408327249974615              4.923888773074038              3.0729402898495795
H              4.214584308563829              4.32591547008223              2.623331083083614
H              3.321436871744573              1.3364927671652855              3.0298339488126667
H              3.3768367877338363              2.1680197760210316              3.152160693545556
H              3.0688042952518244              4.311218610115307              0.7123330322679637
H              2.8664072927649076              4.9845660251904835              0.3778631541776978
H              2.3183182725261178              1.6893140902563577              0.4188200100603873
H              1.6797936887649598              1.6441950723483074              0.6656483253087594
H              0.37903276419912846              -0.4472754574088345              -2.2892619037817314
H              0.2732007686411929              0.1637070016873929              -2.1712615256646437
H              5.492659506686199              2.5329972838176307              1.1904820457762588
H              4.903789698901618              2.2103080509418285              1.037126037385894
H              3.8445089258222787              5.038771606739917              2.9122993671736506
H              4.053500399642773              4.30918633032278              2.848799013527015
H              3.3128494647246787              1.3075437064598554              2.9703380829572428
H              3.3847015228858233              1.9864336076538136              3.2016292497251206
H              3.110320614508775              4.013063999195392              0.5308977748220769
H              2.8014186619675114              4.738454474462569              0.49490447606655247
H              2.2507133424557684              1.515949954720304              0.9475652233245534
H              1.6221172921504632              1.7109334808171675              0.5235869195724282
H              0.531526512335971              -0.5664688113513195              -2.041300477706212
H              0.6790282166913263              0.15455026258946025              -2.2810337332723694
H              5.566569510805385              2.4235421370449792              1.5412233295157234
H              5.17867347504137              2.415776478204125              0.9030949953349412
H              4.368291548304141              4.758473694692719              3.0286576682336652
H              4.010061037308697              4.196576706882069              2.7165420447439654
H              3.255682484097377              1.1665026041832074              3.349700050053384
H              3.3742957118640957              1.923223397130209              3.138058975703362
H              3.1315172387982693              4.1013791320869615              0.6459040249046261
H              2.787688812387832              4.72982842506254              0.7837341624982076
H              2.2348707499048173              1.4319531562112426              0.7216414106023422
H              1.8065422602497174              1.6721333967609926              1.2097087293746163
H              0.38257746367010165              -0.4417140607441768              -1.6777218684567976
H              0.5582961168372255              0.10939677567828826              -2.126281492911895
H              5.610811353117598              2.4767108397178768              1.3435598903041501
H              4.998218182167697              2.3864073593025346              1.060189802367385
H              4.391520132345053              4.509495304151655              3.149906676261704
H              4.1956387231052075              3.899979314234954              2.715800008724736
H              3.397656197599489              1.8774624647290892              3.514869885503823
H              3.3222888416913965              1.9693476053258885              2.720698109711832
H              3.28915780007034              4.052388654906924              0.35936266257558425
H              2.823228369755355              4.461980460553869              0.7775392896696854
H              2.121619275350594              1.501915210471512              0.954138973426462
H              1.748074399867966              2.1211802057844165              0.8832011824185667
H              0.012573387480143482              -0.4212202540652924              -1.66601009644659
H              0.2700174565820072              0.05619860114632943              -2.1177116960694553
H              5.416926469693031              2.564021906289002              1.3490789812903747
H              5.236222679215559              2.0193190938542402              0.7942337459033767
H              4.109609019263194              4.558705131741491              3.0804827822776586
H              4.2767849863025065              3.874315876650297              2.8629655005107346
H              3.2056435585645224              1.2755585418776332              3.3293818256589183
H              3.437848367659613              2.019017774015575              3.0772285218414006
H              3.1763464820705734              4.033872392987749              0.36099381091594124
H              2.8404820899174608              4.548591009659499              0.8288334553666354
