72

H              2.1409733243508424              1.4545035634912133              1.4746035021540476
H              1.6776171007755587              1.5198982411200748              0.8725141451591665
H              0.3839027595538098              -1.0481827984646326              -1.7551305031869593
H              0.12419486041332925              -0.5036095986946064              -1.4703524998243178
H              4.591351535904241              2.341382737572067              0.5753413560966075
H              5.094036155579897              1.9579062450119211              0.9779832625045228
H              3.8270930721805825              4.272901209525155              2.8085588350516244
H              4.224032501459471              4.832328165448531              3.006371250999349
H              2.7565030935237345              2.5190049212371255              3.462823042758139
H              3.1134111740583066              2.1633007110804545              3.909641817391685
H              2.53841661277426              4.572155170722599              0.5933372088739582
H              3.08165856421823              4.088529111852938              0.5274005356366384
H              2.249219478293947              1.612512510674367              0.8798509508885655
H              1.5792180839213572              1.3996267263959135              0.9860865649899352
H              0.3763756312775582              -0.9931397252367407              -1.9807030652230861
H              -0.015085499417530714              -0.5534753771029688              -1.477675784323573
H              4.444236787856001              1.9536659841759965              0.6452387686941501
H              4.820436833262907              1.9761008232194504              1.334917320498418
H              3.4359000016572123              4.625985674718841              2.7834949973755507
H              4.0727031706526              4.710515395406084              3.084865249937019
H              3.0757332833057203              2.634438157552005              3.5347972000920715
H              2.9486739408290044              1.9715858395225727              3.8148036269380663
H              2.5769993620673617              4.282447080566261              0.37834546642005906
H              3.276440240352556              4.159922620512601              0.1493871091518885
H              2.3115569316083224              1.6256223653198176              1.138422441947674
H              1.854511058539975              1.5068524742845668              0.5799151327987524
H              0.7367001868810131              -1.077453579336729              -2.1790837265759597
H              0.24804557735086863              -0.7490433919387689              -1.7121090859278696
H              4.826928679501009              2.103422495183614              0.9336382618660876
H              4.872427031066072              2.2095498354657965              1.6017719719599353
H              3.585876899388893              4.785523424663591              2.5009014352784407
H              4.195116804982707              4.782310148735388              3.0032331968286177
H              2.938207286229586              2.4189929473889356              3.382227912739034
H              2.9170102811123932              1.88813577835334              3.949944602208267
H              2.8413998485874914              4.272989728242159              0.6771915270225718
H              3.1481468104345427              4.197608447130011              0.02685137383232892
H              2.371978085495222              1.3195868599898095              0.883933469288919
H              1.6322808074252055              1.5679447000981181              0.7819686920807167
H              0.8833779427859527              -1.0511034242290855              -1.9066958461314072
H              0.2497123349056867              -0.9788013598050539              -1.7030419545217523
H              4.907006352684619              2.5110181456404423              0.6517786514309556
H              4.925306138631896              2.157322467627024              1.316948577566785
H              3.578617953026878              4.5265333383241195              2.8553959905942428
H              4.347271547028788              4.67712394749704              2.8340429462249137
H              2.963283298136283              2.4510568450313475              3.4219523892153574
H              2.8327388836439398              2.32650499080353              4.076526632468582
H              2.9336991847421285              4.271998767361419              0.7414341138916308
H              2.83914367771099              4.026342638628652              0.11561184222337614
H              2.4259538652201456              1.478858783384554              0.8667123660566602
H              1.6780203435602827              1.5796070359146317              0.7500739789295656
H              0.6730392326754422              -1.3392717855318315              -1.8944069479364558
H              -0.10660373700342243              -1.039560911556969              -1.8310380280381524
H              4.69275855823879              2.490841385543772              0.6961639750900088
H              5.028178882825985              2.3351541113103034              1.3619756183305027
H              3.688580715324636              4.358533250592489              2.6201486079595235
H              4.226402048175271              4.589991946034848              3.010105649781316
H              2.739498902882231              2.3854415462740683              3.7538845701934584
H              2.813038412435415              2.007139539935258              4.382046661271365
H              2.8245700318033573              4.206425788919616              0.7768638606721936
H              3.0584243994952174              3.899934855212584              0.11230673192815456
H              2.4139975739659887              1.115557739021885              1.0807850164540935
H              1.6804528577225382              1.0940666134748736              0.9249505154207175
H              0.5478779432453996              -1.2217567731744061              -1.9652521042284938
H              -0.04296023254109438              -0.7120755004707926              -1.714240435522648
H              4.779560794087466              2.2942385410121227              0.6633096440836981
H              4.976466496701959              2.273464637627579              1.4847788203516132
H              3.851190219235349              4.239431551652924              2.6166855226923724
H              4.152606462522734              4.674696519072112              3.188492107218725
H              2.669530192736359              2.2231924231932307              3.5603353350977143
H              2.770479474554437              2.1409503625192              4.238627425494325
H              2.5821981249458825              4.193540685726264              0.6474095121166316
H              3.0834723480422954              3.9190983951061282              0.1552307339137537
