72

H              1.8244370515868624              1.3677358058475226              -0.3209516238246249
H              1.2996022618955643              1.1164185388732026              0.08809695660966832
H              -1.5306063043643217              -0.49186738140484654              -2.434289111925328
H              -0.99639890915929              -0.7238983473200339              -2.0130548064170433
H              4.242364973690564              1.5785171104320759              0.5960145889706383
H              4.4583246247174815              2.3607587705637783              0.6137710129722117
H              3.673592219351577              4.45198751612482              3.228416843686331
H              3.8783470592482185              4.43525319633924              2.427734563871875
H              2.0972060865344244              2.103012070172428              2.6341021571033485
H              1.8475926286887607              1.970659593442147              3.268537969716362
H              2.1484175184535967              3.7359842918862114              0.5021474021493402
H              1.4637007168325133              4.1201800185936435              0.5688069079360645
H              1.69367818773919              1.6936239631369887              -0.28474284083939677
H              1.0756647100718564              1.235335084302622              -0.12705099621059304
H              -1.7523132657556197              -0.5802089180953273              -2.4536816240575012
H              -1.1239545828372852              -0.911148838776786              -2.14663750501232
H              4.00039440763307              1.7546040604772688              0.8322380159531352
H              4.479019098893289              2.2888622226456485              0.8590588998306514
H              3.525899409432673              4.267667315849682              3.0691394351736054
H              3.9911797146589345              4.401132390169617              2.440508288028652
H              1.6932976643700106              1.8371739216015994              2.4883398545977142
H              1.9053780116543182              2.055536758808654              3.1387360744191195
H              2.0575832327119463              4.127794939146661              0.6152770548201836
H              1.3815983086909636              4.120251450648246              0.8588427516364324
H              1.738617078045642              1.3222637657531706              -0.4929431125427396
H              1.41196268358277              1.3883002878226176              0.100839464532263
H              -1.66313547017123              -0.40113810679666206              -2.2042988647007378
H              -1.0321002903054182              -0.6454775447297907              -2.227518807160754
H              3.8627994722977452              1.7601747997768413              0.8395592906107399
H              4.191968271567831              2.425305499246769              1.1317120882420895
H              3.6835537164065846              3.9608454599170035              2.84892652639473
H              4.042782512244066              4.584474824847432              2.507119148550636
H              1.566793052312591              1.846183517354052              2.5586338516231204
H              2.112310242106452              1.8986382309734284              2.988421644820991
H              1.6855535440803777              3.7430749118231668              0.4876658640637157
H              1.6569510556526              4.041521717311679              1.1671581554363981
H              1.5868690926323465              1.4731369039399411              -0.3312502723194975
H              1.556702422742354              1.1405193282920163              0.3322560915162951
H              -1.6272607999122997              -0.2824824928678836              -2.226450886185863
H              -0.999871719741175              -0.44190950444460325              -1.9862766400395706
H              4.097037176660836              1.7311987466183743              0.5370196751874837
H              4.38574609223768              2.4656292346086897              0.5800336207813241
H              3.725051831474035              4.165072978521551              2.901172446494631
H              4.191530213222334              4.456196011535299              2.429913282736347
H              1.986018780295383              1.9590901116537096              2.241916094902169
H              1.9961382110835368              1.759894558454448              3.002628086999515
H              1.81270489789686              3.817207175324156              0.4343877633906587
H              1.7438379204215355              4.463541619001089              0.82595702329508
H              1.8995547820609764              1.183088411209955              -0.020868758388117477
H              1.2653287785009133              1.0805568453739445              0.21084593737879864
H              -1.5274634950809152              -0.3095822681361017              -2.439571025663259
H              -0.906061041266402              -0.5286950977375912              -1.9252849552891937
H              3.9877164307703947              1.846539382815005              0.39518902893090546
H              4.499278053202739              2.1229856929082747              0.9208826053763725
H              3.798228204850785              3.9786434030544062              3.3809636359050175
H              3.7427328210735515              4.35925188452048              2.737364158647151
H              1.9742843590226589              2.403438637209763              2.272032419688916
H              1.9506006491723984              1.7389576024729343              2.632499301610909
H              1.9684263197900371              3.872559670724116              0.0626923896961859
H              1.7065570375761983              3.968477580270519              0.7194809614500977
H              1.663526081505604              1.3701604066032362              -0.35176422459051004
H              1.5625592214035837              1.0937502278117597              0.3711931831717539
H              -1.3336406838883588              -0.6760995257364214              -2.39750297593517
H              -0.6155481538700439              -0.4958977052332908              -1.9909411095040714
H              4.3756531417965725              1.6794394094757685              0.7942847386719487
H              4.811534906416544              2.2221039771632607              0.6634766469464979
H              3.720835774739804              4.120979305436884              3.183044052674192
H              3.971009370958119              4.536237493022118              2.5976382437548224
H              1.5650244101918815              2.0405762675147496              2.5863061684489717
H              2.094553451385045              1.9135988065441014              3.0178369834129115
H              2.011676005360304              3.7845423347953875              0.11029318031114928
H              1.7177777541288375              3.97022554758428              0.7628783056659492
