72

H              1.5431619880260796              1.0386662634597221              -0.6556295145052747
H              1.3502479838247903              1.2586018732792945              -0.009103007711576254
H              -1.7326953043876445              -0.556535358669052              -2.427446263836159
H              -1.2704420400840206              -0.9986648478434587              -1.9157045780549184
H              3.9812996103407206              1.7509243616733017              0.6614828935807873
H              4.234482325708779              2.3846624020600933              0.8138771112983326
H              4.207535990405271              4.44803799537678              3.065663706861831
H              3.908677333545341              4.289169612714718              2.413071377681142
H              1.711080813971118              2.4261740975514545              2.350606455648309
H              1.7734036066838148              1.7698947214538527              2.66451983125156
H              1.7136908192469142              3.6775295356423876              0.42505102820754986
H              1.646242773328972              4.199180483545849              0.865645849729859
H              1.6107635381725467              1.2504520020000296              -0.4509763291189491
H              0.9251595600824236              1.312796747752612              -0.14280381598600714
H              -1.4506302759541645              -0.7802586756711789              -2.391984427614923
H              -1.1320128181698328              -0.9228156685358345              -1.755855030048671
H              4.050115017498132              1.792841441381544              0.4393271749129712
H              4.419886762609957              2.188787489333538              0.9629310911463936
H              4.179329680849205              4.138371722045767              3.259120460406781
H              3.685428443547668              4.042394571609058              2.7335605691619866
H              1.4291657180472785              2.504292780430454              2.463538995021642
H              1.6588030070525126              1.8319816511405373              2.6161915367305757
H              1.893633665021985              3.8839876271635783              0.09943251505171988
H              1.5382579812039219              3.8497911212465508              0.7565689037198151
H              1.790850823174071              1.0414008190626147              -0.44633501435426426
H              1.2301382595675263              1.282802813085595              -0.08291374632405135
H              -1.3826675229697594              -0.9617474861510037              -2.3697194270517246
H              -1.0359294226472142              -1.0442869995474908              -1.7524937658344997
H              4.155309259045018              1.612882677594983              0.8593528685453525
H              4.568907077714885              2.1395296625308284              0.9413305248332341
H              4.154700272389304              4.336023735071676              3.1818811808434178
H              3.784670116538063              4.103103648820972              2.623689205967085
H              1.4351997503349831              2.424165262650023              2.6733115279580724
H              1.6313947491711944              1.7420676732374367              3.027102485705742
H              1.9101067422237274              3.664659543946772              0.17257550768682767
H              1.541719065471974              3.9075116783269057              0.7289547917928042
H              1.7170021676052578              1.0671582888355755              -0.3223969794753952
H              1.0663236012991109              1.147296590227029              -0.14312628168986205
H              -1.7016001712598048              -0.9856751801358884              -2.468907948410292
H              -1.3693722389911052              -1.1240056696829883              -1.7562404550120794
H              4.086308245782742              1.5318412058495654              0.745975684252556
H              4.35359287061866              2.2156883881343363              0.618071330070624
H              3.7622622271477906              4.7254890320237815              2.913139663221648
H              3.879759450397058              4.07775257127876              2.5503423506358356
H              1.4701617589221032              2.306133574797896              2.8336681824685384
H              1.5066865363380628              1.7505561372247804              3.220720384052553
H              2.016491789714756              3.823431980910306              0.5092193353458825
H              1.3931083682135916              4.152925512148788              0.5271856569222352
H              1.472867581152894              1.107225682652252              -0.5677289793356688
H              1.1881796462187062              0.9064119721283407              0.12710852396999153
H              -1.8872136703807918              -0.9135045671135422              -2.5560570168653673
H              -1.5871763886390213              -1.3638480302047031              -2.066772523632933
H              3.680511640166567              1.7395577659341208              0.948815721113271
H              4.2474009291187675              2.0811364234067895              1.1303285306597723
H              3.742769524209572              4.536456003648789              3.1130179348508813
H              3.803591612170818              4.207995378859072              2.4263767585363354
H              1.2990535761039381              2.128421285963607              2.409247259775331
H              1.8034415115404263              2.0579397964222794              2.926895153471082
H              1.9677101877538696              3.912355097153401              0.6785094027754859
H              1.2532677309163693              4.161465280293764              0.901797029447387
H              1.303480776333264              0.911123715499503              -0.681506369618419
H              1.47224785976626              1.4698156952419967              -0.14542860717741687
H              -1.7468150928920432              -0.8232992785636458              -2.364441049990561
H              -1.249793973816306              -1.0696019963825478              -2.0374194874227927
H              3.830949523927579              1.7301146868222022              0.9827907655737015
H              4.1245698333552205              2.353140494884125              1.1929318151121198
H              4.017906138587718              4.46786474864495              3.004038952747308
H              3.870306752403825              4.321165417220465              2.2901488595944413
H              1.1937018640762525              2.2824123943776016              2.5274664935479474
H              1.7582147010998974              1.8140567774526475              2.759229219417719
H              1.5798112462987466              3.7236782025745603              0.5069384884908095
H              1.503433153309435              3.983162108417834              1.1659780642467348
