72

H              2.3389418399880375              1.4850758866582594              0.5394262274482271
H              1.7192099932980915              1.7394231047443305              0.8294336727880262
H              -1.217384428702278              -1.3076672397241544              -1.606001496689079
H              -1.4191913749658382              -1.595250480307451              -2.3613943869903182
H              5.198696060706529              2.3325050347032947              1.4524576024347602
H              5.120340645463842              2.4495776149858837              0.7545311978760724
H              4.70539935513441              4.620822415611981              2.912906086061431
H              4.442632052471968              3.953128179158767              2.8162342324783736
H              3.1630159413878243              1.7280314945161257              3.776438573407465
H              2.5817909655192515              2.2639614051279797              3.4395802828313258
H              3.1690200126810026              4.779159562567879              0.663940261780233
H              2.9238438668481277              4.296641370755481              0.1516725122437133
H              2.271440533020288              1.124267791013273              0.5851183546253169
H              1.69670690589441              1.6140976858839502              0.6971879968961836
H              -1.391814037498566              -1.0620522237137977              -1.7709004158092705
H              -1.2936981836707682              -1.5335819678647367              -2.2893167789756093
H              5.311180519958661              2.451001988311047              1.387123555590834
H              5.111747000581913              2.5689407298254188              0.7337674253306639
H              4.516663644393506              4.882454031713              2.7091691337324186
H              4.5895089787869425              4.178984798499098              2.947307605653638
H              2.9442353084290196              1.9055541869950885              3.9462977648775373
H              2.9454304461387455              2.6717368104762866              3.613023404559506
H              2.9668534485076994              4.480284308719714              0.7429230870216008
H              2.640739313519572              4.375178078879818              0.10780562636448687
H              2.503046687629576              1.1326877615096125              0.8107382971126524
H              1.8213821799732584              1.3859214773404798              0.6305712308725192
H              -1.294131662971445              -1.1166081170565823              -2.054510783449413
H              -1.2036338634684578              -1.6013925103266964              -2.5141247001438365
H              4.9749939231718185              2.48149173397694              1.1489267942082508
H              5.236573936865615              2.5679915711797525              0.4754160762580202
H              4.215205194664296              4.983279242728529              2.8764713696019424
H              4.409894452738515              4.311626440903821              2.85788529268271
H              3.3753439635058533              1.5587608197763732              3.588232388431697
H              3.055744536461843              2.201443610218019              3.55709462222346
H              3.0326110711847556              4.520511510700022              0.5939072742096264
H              2.3893764363877366              4.3298688184116445              0.3307656691889195
H              2.4403063021469387              1.2132854433484146              0.7581473272468383
H              1.8457048056860814              1.6092072956602597              0.6913270140092791
H              -0.9510787195722253              -1.282641855146805              -2.036954841757068
H              -0.7685235315740834              -1.6007992835801865              -2.634192157728322
H              4.967902998307057              2.326902554505644              1.2497769251594137
H              5.250028302373453              2.2889081954165817              0.5839195777583578
H              4.084831888915736              4.791685486507677              3.1343467472626267
H              4.362770717668878              4.121537636568687              2.9568158741902377
H              3.152924453428588              1.7474581451320739              3.743268022148264
H              3.2201611831438566              1.7968729689077803              2.9775316444165014
H              3.175093292283105              4.310427346477596              0.7017529060322892
H              2.597805332868222              4.09067063828823              0.423363390891201
H              2.2485383205188096              1.4511797709318894              0.8734786743295414
H              1.993805606675998              2.1319621742037222              0.634871682773544
H              -0.9195897208286834              -1.4342672449608442              -1.7058234048916825
H              -0.9216473432371703              -1.4309524296660032              -2.466179371510168
H              4.7610310199712025              2.181936143038758              1.2790011237542214
H              5.089959694756181              2.511723798120251              0.7451871976312121
H              4.483733495342215              4.598044504586706              2.785677684720133
H              4.695419672744486              4.049267330124575              3.2486920166434503
H              3.3193046638930896              1.5622532994162195              3.59351991948667
H              3.3213930273139516              2.210248871319663              3.3126791257009547
H              3.2317230899610614              4.651836103349892              0.8778552853620327
H              2.786033251989706              4.374928575484697              0.292471155913257
H              2.0983453676063957              1.6782589559743182              0.359855832949825
H              1.9469439070405952              1.7720042402645655              1.0787768518456078
H              -1.2069635733195307              -1.3608447074985008              -1.5986227435607028
H              -1.4725805091841118              -1.3665596580655517              -2.3201477611455763
H              4.8658273275294865              2.1286453371660348              1.3145599850950298
H              4.915557133590243              2.5307426251762455              0.7309477009408822
H              4.599090863133899              4.645523010842246              2.6971839685302235
H              4.623676847901424              3.9938852103820706              3.0328683662386093
H              3.488104730959891              1.6271697272588883              3.682209752585719
H              2.9637096399312677              1.8450838785743775              3.182826746227394
H              3.1660382604936195              4.628191954388591              0.8062351701294652
H              2.7868748968523014              4.256422994303372              0.24891346546476037
