72

H              0.7185701147821665              0.6275607549440604              -0.5000315912438624
H              1.3461539894908192              0.9622788144631867              -0.4484211769941529
H              -1.509131050525791              -1.5149668920322592              -2.55491528270759
H              -1.6464277855805434              -1.746197755332497              -1.7830364143236614
H              4.18586087825274              1.2392281051662088              0.6701430125180871
H              4.130888832724532              1.9071732721526677              0.9320101813884974
H              3.9901149767486976              4.3156435696441156              2.4518372768023626
H              3.8688521442613677              4.284799040139691              3.124759246900405
H              1.5808871554846753              2.058166369466513              3.075473438062035
H              1.2901340544580113              2.081337333434113              2.3022239755625296
H              2.3579809829788454              4.1905799435849085              0.09669797007629409
H              1.8788009404579973              4.158152237075944              0.6516511659640382
H              0.8859886673829669              0.9234021551146816              -0.0924461444007409
H              1.455008694740807              0.8070250688973402              -0.5470790702822694
H              -1.1931973907156905              -1.579804701947833              -2.365875592589003
H              -1.4546320747100183              -1.6552348478745407              -1.6176695382216935
H              3.60147390542476              1.3084132369525994              0.8625210274034006
H              4.153231022557963              1.962831998103246              0.892954199830292
H              4.292553560079918              4.096840372022361              2.590220262071382
H              3.827926243481351              3.8312930608551143              3.0407891090872887
H              1.3530441702200326              2.2413390268740043              2.7596717090088307
H              1.9785366273454557              2.102116102275372              2.4337849256010893
H              2.324234893267736              4.062005746157104              0.12630450215244612
H              2.0450722273424438              4.093077590003711              0.8365070690638808
H              1.0714839085917747              0.7997740053077961              -0.5999801238393391
H              1.4327164875453715              1.3774277841928981              -0.2722286647615286
H              -1.2236769872593745              -1.6954560789309847              -2.104822138293771
H              -1.5446073457321745              -1.8060397534811492              -1.4673608711098016
H              3.7568228259371788              1.3576148827160253              0.9087126678092364
H              4.068334526759308              1.8793969951594767              1.2114437572621597
H              4.01219716691394              4.007432503680001              2.3661787447621023
H              3.953262245939629              3.9404597046790344              3.0786864707909585
H              1.2642033091350613              2.344227559854499              2.7424891178944346
H              1.7431069175521519              1.8050646879948637              2.721772774394582
H              2.529722201637778              4.1306190549826365              0.6114415588203375
H              1.8948532395285158              3.806559526097968              0.4265234311066032
H              1.1392225160055731              0.7270749128995306              -0.7200766354932145
H              1.560650759779096              1.095545135206006              -0.2599358575146595
H              -1.719887718527961              -1.8279643486501858              -2.5122855516212437
H              -1.9245982187528687              -2.0049324994620847              -1.7519048575024314
H              3.614123006693656              1.2892726979651454              1.09124551034552
H              4.313780192365462              1.5408914725037595              0.9940486432811454
H              3.6812438082366263              4.49638105510191              2.466845378744871
H              3.75007462399305              3.931536648615927              2.929218546077489
H              1.2864273342550112              2.099707548444018              2.6047152352132805
H              2.0620061003448806              2.140941797478502              2.5464896260112067
H              2.4540326196166506              4.019788269241313              0.6039316559001409
H              1.769057118595255              4.113129616471578              0.49676762486869586
H              0.7142184537637434              0.9838213795366626              -0.42119467828483953
H              1.5253506880686125              1.035962184375832              -0.4673202632314423
H              -1.719002839963499              -1.7362032163230596              -2.502900605217804
H              -1.854831238414548              -1.9238698356495412              -1.8763363900426737
H              3.374171355152371              1.1829162055134854              0.9743291491612477
H              3.935928776638806              1.58179074342299              1.0112760206875817
H              3.806300715856189              4.605221062654894              2.5630035872831622
H              3.6533616275138954              3.9722476976277754              2.86261412873302
H              1.5135036803514592              1.9574882808018854              2.8373646879101835
H              1.6462129962923326              2.3528372326686164              2.216047084677696
H              2.0946885334083345              4.061061621997949              0.352796375387921
H              1.5632853401468794              4.203006733369209              0.8641752014629693
H              1.0952242865413508              1.0912387644627433              -0.7406488738362109
H              1.4246222014518082              0.6130825712944962              -0.25193225952192944
H              -1.6219551974595654              -1.500763430338755              -2.3470066539992267
H              -1.8100032011583613              -2.027085522203483              -2.0071559113616906
H              3.7515703968284146              1.1678182603974023              1.0556019003898502
H              4.0368208010763675              1.8356402968604912              1.1791382015313479
H              4.119138499414729              4.577731322928626              2.3980611383282233
H              3.8776742122970282              4.304792267940094              3.038209110944983
H              1.3494684203225136              2.1588592653255008              2.91563493032836
H              1.7900815356272066              2.018050535187805              2.2944951197557764
H              2.2809166729412222              3.996593662692582              0.4907860195987698
H              1.616470268653673              4.214508140891441              0.7090519161868633
