72

H              0.7274339924031734              0.7555031158742902              -0.32907743753402274
H              1.4283518162968152              1.0183404542089933              -0.43197025443612747
H              -0.923332358741664              -2.539127041189868              -2.0455472729392263
H              -1.7050764222452401              -2.8110442848143866              -2.14255905075674
H              3.553824665395144              1.0858640232773091              1.470548827859304
H              4.2082673989048915              1.3306296906732638              1.30727436925802
H              3.6640146490903933              3.706862480362952              3.1726916957620075
H              4.315187041827271              3.999917761465613              2.884555918468992
H              1.7245919042266955              2.2291990581861354              2.382131125928575
H              1.10653585624997              2.1490334150846606              2.621212696426398
H              2.7131908624623677              3.544632245216247              0.10803798396376517
H              2.0587535946709643              3.7458706011198846              0.3064163388653193
H              0.7573611088432287              0.9980874743900616              -0.3996635714762819
H              1.4047721506419504              0.7104566317096657              -0.42471701042570487
H              -1.4161556174249716              -2.584478056240705              -2.2528180408850846
H              -1.8887786289662551              -3.0202183819845554              -2.250364974536833
H              3.9041017107554454              0.9777209329165317              1.535034427261807
H              4.541987508503555              1.2738383714033705              1.3453493580155738
H              3.6310881433080437              3.9940346988961237              3.197945398895914
H              4.32399721071981              4.170317761706998              2.9891756836227077
H              1.5894864288969122              1.884972943314756              2.4221773268949427
H              1.2449264232054806              2.5056211748935513              2.452008772194794
H              2.658391091148499              3.9349231038209025              0.04334190985704344
H              1.951818688371685              3.7127934446973256              0.31275658888220675
H              1.41425702714168              0.5841563534722465              -0.8342562030781732
H              1.2349864588489945              1.0957665529313951              -0.26561816128615756
H              -1.2901116325564996              -2.383793038215849              -2.3784040292528834
H              -1.8053278943448883              -2.76192086161915              -2.093315749837765
H              4.039344432295297              0.9547399618591046              1.3212074220705072
H              4.520441353846169              1.3336608135527808              0.9344103647999616
H              3.681384429168765              3.709471050615885              3.267919161642035
H              4.211213458938805              4.290554430654366              2.9952000260611373
H              1.6269099070029533              2.1661075981223106              2.5768329550475606
H              1.107910737203983              2.610161738374165              2.321848051203193
H              2.4449167831704606              4.304349294114757              0.015170659526759575
H              2.038050199704469              3.706763836971727              0.18199145381263654
H              1.746928084273487              0.7846892419070256              -0.7231401346962676
H              1.410477153793284              0.9427656608351681              -0.078146123448856
H              -0.9661986907229034              -2.223173828666716              -1.9472179749124083
H              -1.729838381959404              -2.570744796986798              -2.1201571347351296
H              3.9412934055962685              1.1840822361038024              1.525812848411053
H              4.466465066365092              1.3860803222163052              0.9237030220093723
H              4.070964200796726              3.6033700385528724              3.214944137445388
H              4.478222054962528              4.1856941935365946              2.9916204419304844
H              1.5257862486128262              2.221932383698409              2.897223027263956
H              1.2862702930798389              2.4322687067538507              2.197875540116453
H              2.8167101847939136              3.8594482568473176              0.20255778182203554
H              2.146821874609873              3.8173503889866844              0.03258081799494107
H              1.152046999029286              0.6849243701163946              -0.7454978667036323
H              1.4594307174152603              0.8654134268004743              -0.12520170925464238
H              -0.9643344972095099              -2.5325490911986384              -1.96555959032622
H              -1.6593802246896687              -2.3792449871746166              -2.119950629065864
H              4.230774985415878              1.060996638717848              1.4437646325654336
H              4.467068209909123              1.7385634403645112              1.2123325877699431
H              3.905936640518256              3.6011840816496146              3.339147327182172
H              4.188374832608405              4.04553511960166              2.835895524154814
H              1.3350404318602798              2.1571131439142786              2.8362632894044855
H              1.2428733535999144              2.301828219106557              2.0935043765445753
H              2.96283308734639              3.8265204760494296              -0.2119837636149806
H              2.433418367341222              3.5637913501758107              0.18009088425879297
H              0.9628707909702364              0.5893974936057153              -0.5530700552178758
H              1.548612046744775              1.047700533810652              -0.43192101044754794
H              -0.8568418988499164              -2.6042360142227916              -2.2689658613333537
H              -1.662485932176082              -2.60584296062579              -2.1919885992227814
H              3.7423107616242874              1.3529628561771878              1.5338257738465482
H              4.352472982733967              1.2105176851011286              1.0920609326338906
H              3.684636944341413              3.4800678149298476              3.095941114388531
H              4.11100400158123              4.072631183438146              3.0115310607013543
H              1.8562323726615246              2.1672520836684006              2.603056613006176
H              1.350339977013777              2.4136264432918915              1.9630734380171582
H              2.819710965650118              3.5857352365702524              -0.15789594786458022
H              2.388313585438901              3.6764142847368397              0.3856476254808957
