72

H              0.7208193343334076              0.939317728817839              -0.4993689926260905
H              1.4205751119604098              0.9924686338522413              -0.4078443554674178
H              -1.3974205758454123              -2.1374073231312334              -2.4678051397583523
H              -1.8419007357926436              -2.3905920420754834              -1.8340208307535022
H              3.601857379962539              1.0321580233421965              1.2008298766724752
H              4.2043372977342              1.3374584673996208              1.3416375282940198
H              3.605543462840215              4.035981009032658              2.5029207479264453
H              3.7205000885324733              3.9980382347662577              3.2230722410926003
H              1.3243152961038303              1.957528800634106              2.646799807987668
H              1.9462119415078354              2.2877566688232283              2.403626613107934
H              2.5426827181295986              4.039538724082687              0.26323974904165015
H              1.8308923531775305              3.8908001894968516              0.48304622361173416
H              0.8029737478241951              0.9068880687716834              -0.6135256178975805
H              1.158838169822069              1.2757616422595506              -0.15222423738391952
H              -1.5749998419708433              -1.9536101980193592              -2.3603723861490997
H              -1.747384079155924              -2.367650538628943              -1.8946102040393624
H              3.4648309186104758              1.0302092835078203              1.2823596429090396
H              4.0700569832581195              1.3738270006025124              0.9290096072077592
H              3.6402764122184252              4.443331992377538              2.4417466367067897
H              4.070870664981975              4.150537094173231              2.9440709337991118
H              1.818084510412876              1.9705136535219325              2.9243222451873487
H              1.7193014991889164              2.2319274406506624              2.206833063404118
H              2.3647004612665676              4.124752744005806              0.49815668372371746
H              1.5968768820443033              4.175291546179882              0.47660779676438497
H              0.841278076572107              1.2626742331698346              -0.4855014540774426
H              1.3069408588740756              0.6388165351251835              -0.4855453807930097
H              -1.6266804746605816              -1.805078260481116              -2.3129362572331766
H              -2.0673779984197087              -2.2499847563177138              -2.000355757467599
H              3.65144730123492              0.9807712954531314              1.0164062319608522
H              4.04693173822571              1.5843791213886644              1.0150854889509744
H              3.800062991984452              4.3268295557171              2.5211818477041703
H              4.131515289341604              4.226188081964062              3.173624886547686
H              1.545583946292866              1.943598697937156              2.9340950212467436
H              1.7549448798891267              2.251098049918329              2.236030904077036
H              2.4646834347621502              4.086058490234662              0.2858673719247728
H              1.7911895859597178              4.312805385059464              0.5320772498218763
H              0.7229435486979561              0.8864224360800976              -0.080138633425835
H              1.2589911309412234              0.5699917724156411              -0.4735556615025223
H              -1.2395198427002916              -1.9388952367561598              -2.412974036690378
H              -1.740461337282729              -2.002260189534338              -1.7581577408471145
H              4.256309660930547              0.8876951198789846              0.9673711551454656
H              4.253949672420597              1.6758323227175842              1.1497031193151006
H              3.924825100260952              3.9408779138610934              2.566561102320067
H              3.9408826116744553              4.251874536303668              3.208061708718364
H              1.3683460491616166              1.9441094311894016              2.969173015056761
H              1.4063103839348026              2.2392599681883825              2.216054366283645
H              2.3812799855517577              4.426151690563297              0.0025018406257911008
H              2.024160804851124              4.047671740997779              0.5216486849150562
H              0.6469534287716339              0.6885271197590133              -0.024233496397135148
H              1.3669177684868983              1.021963322477397              -0.17294130175759653
H              -1.0388164684691867              -1.8175225918456246              -2.227700324392391
H              -1.5752723955014147              -1.893823423199714              -1.6838725846612883
H              3.7256289620192              1.1384206272348423              1.1202923728915966
H              4.0765035285263895              1.7115389678332298              0.8732431513845801
H              4.042252667321547              3.853768018402763              2.5163896639988437
H              4.042529609382545              4.143602557859924              3.093694419235022
H              1.6047089563923573              2.291627799841277              2.9659927436489895
H              1.9151985655929111              1.942046028382028              2.3577649875739737
H              2.635271102894088              3.9545268521388572              0.02804991847255119
H              2.0235467099362987              3.8557788715862227              0.37522128082400885
H              0.8181439694453507              0.7033924075625242              -0.19778540214185666
H              1.2692332425314623              1.2344097962552711              -0.45817239375540264
H              -1.1840213952090406              -2.1961234366368956              -2.1880886090101566
H              -1.7636697850180438              -1.9089965207034225              -1.6852305406271317
H              3.564597531034415              1.2282460467220604              0.9958389611211113
H              4.175415668720091              1.7514772004956038              1.0622267652833126
H              3.6576498252361977              3.945202163709689              2.4692357774308715
H              4.088884850893446              3.9355914107911367              3.046706849271626
H              1.5990005007881074              2.0605584979271048              2.8648371696211647
H              1.9058017878180795              2.1350977990857487              2.251801620387294
H              2.8371866031285626              4.0758891890046725              0.24007401243614349
H              2.0993772197594507              3.995844322154029              0.3504423724960281
