72

H              2.1951503508344494              1.3564316705977004              0.9004576668279931
H              1.6348891962338428              1.7228004916089614              0.7884879238870508
H              0.42617679270825387              -0.7542872047613104              -1.9627785697117173
H              0.35381869606863137              -0.10347687902786824              -2.0577258242049083
H              5.668224628987074              2.677042869016308              1.375322532302389
H              5.265516209534009              2.080637297514623              1.364546087218245
H              3.991112236225145              5.047124135463867              2.920462987134025
H              4.4237621441225485              4.439388177589022              2.930609603911211
H              3.0714491097435586              1.4676454939510235              3.164256185626494
H              3.4554649314530943              2.080687462147259              2.9595259046925175
H              3.421902973405571              4.11042600056595              0.406361693351887
H              2.9334462838068136              4.580481835643916              0.6810751585936858
H              2.500196748277231              1.3458254061439463              0.8895205567522924
H              1.93440685265113              1.7498918495409646              0.6545331261121841
H              0.433162786756485              -0.8779202687568435              -1.987048185993223
H              0.27360715883249126              -0.08913247640186399              -2.1232883327055028
H              5.430187465229661              2.64806471316675              1.3166413138452142
H              5.232626239445415              1.9788415984753882              0.8886192332163437
H              3.88411053473399              4.696698730663258              3.133790703478316
H              4.316207202803863              4.278565321589386              2.7710611922355426
H              2.963307570189627              1.301001887526997              3.3234304718235097
H              3.1777538051777716              2.034649194390025              3.1900156500060928
H              3.182340699517156              4.001319356393136              0.6835375992004848
H              2.590524520029136              4.435153866864419              0.4959556145099062
H              2.3485034452785416              1.4488653194154084              0.9880567093190608
H              1.7147077753091235              1.8500025320967277              0.8750358249576136
H              0.44869277255197554              -0.6207784727362372              -1.6473810010471701
H              0.35829898767819257              -0.09295416428023778              -2.189764065028191
H              5.55504663805473              2.4513602524636764              1.4801980755439972
H              5.290469077984244              1.982615118019014              1.0094056118868548
H              4.114807197882406              4.444532788717174              3.2444314328134873
H              4.276245473449234              4.246414723303076              2.523471054719444
H              3.2485406199321125              1.2999569668655182              3.443205647297606
H              3.2252115318810177              2.024680968597583              3.1935159850599457
H              2.803731865689331              4.151828203833968              0.868472171531157
H              2.5785078649599655              4.7084028140190854              0.3993740861443839
H              2.2259461778018093              1.6201968213774867              0.5330398758433177
H              1.7701235976521026              1.8851266011211019              1.1113902145778134
H              0.45671779986474703              -0.46988332454364995              -1.7420882081457962
H              0.34065400478039437              0.15979700121978202              -2.033651254068837
H              5.35334661127644              2.529829055081727              1.1047223418247505
H              4.91798047199892              1.936220314375587              1.2050269430556098
H              3.855512702610911              4.50648692916271              3.1305782756571983
H              4.329877630414073              4.184531739597094              2.6170313751778385
H              3.779997474264333              1.3656370371350373              3.3282205487313306
H              3.105009947411718              1.755591748867692              3.2137003146244045
H              2.796006721981603              3.9488084823406377              0.5593924803166513
H              2.8071441337212955              4.711688127719336              0.3719197014110635
H              1.9637544541685885              1.6335230152289757              0.9621833028275893
H              1.465312168391313              1.8324030397094688              0.50455332566496
H              0.5976352391275972              -0.508315763906785              -1.8523238610706172
H              0.6300470134801633              0.2448787696834246              -1.981493566300506
H              5.3703720929570915              2.444142224319682              1.443404540756297
H              5.035729936950362              1.9390147765684742              0.9810602933625112
H              4.072769723650633              4.85740450084128              3.1193631322141333
H              4.023214887549542              4.234567538671384              2.749243330032671
H              3.436312212408775              0.8790643037190898              3.1838450771714726
H              3.3703546580420016              1.5154091504575817              3.641597278124427
H              2.8925125995173944              4.017796419712466              0.6196141354019898
H              3.004173567194872              4.802540096114558              0.5896805875639046
H              2.1623447621699152              1.3855032272583108              0.8536555604196934
H              1.4349117260905744              1.7268963071699364              0.8331352551667817
H              0.9588457269101713              -0.658698018777876              -1.790697923837476
H              0.6213278046479926              0.08994239745721815              -1.8063355463703716
H              5.608146249271623              2.4501010627587236              1.4084097898560726
H              4.934641717216635              2.078907591186957              1.348958132955018
H              4.240133758585579              4.875137763400261              3.2205012209450428
H              4.152768115456465              4.349255851431998              2.7069402233425226
H              3.3706386985501195              1.2678481910288535              3.5112198579645466
H              3.182639137530608              1.9606956667015512              3.054266417926732
H              3.3276737354651504              4.095644043626782              0.506004774584315
H              3.056624174732178              4.779270776665197              0.5591570193489295
