72

H              1.8885455873492898              1.2356204387155152              -0.37660693108538307
H              1.282765175517805              1.293636531139817              0.08425498726602834
H              -1.6321243090535966              -0.8305221714287984              -2.307681089071221
H              -1.2751906896206384              -0.7781978379976023              -1.7206618833533598
H              3.782784202489392              1.7559430507516751              0.8776487955257504
H              4.386398608696391              2.020852225259275              1.0324173528338594
H              3.643405397878641              4.130207127033978              3.1509401784370485
H              3.934151477850358              4.174341579247719              2.4769358990029637
H              1.3996581286470118              2.056963065435271              2.53433092996275
H              1.766544708712185              1.7483863326262403              3.130710146267808
H              1.854747687692933              3.945072271068384              0.32581978950240026
H              1.355358575158332              3.998729821323197              0.9383166410667929
H              1.9262420911231355              0.8524308383308892              -0.3949449531681824
H              1.4706476652998264              1.187373911123141              0.07900321873345756
H              -1.8408041156940027              -0.7090867388597786              -2.5080838558314897
H              -1.2901156037089554              -0.7532719315409623              -2.021863788846564
H              3.9591820091580052              1.650321464878214              0.9823059733257583
H              4.392923052237156              2.210888311072994              0.8852889964158579
H              3.6238868732444227              4.6801033691349              3.004922215463748
H              3.8737090593567154              4.390947059044191              2.338046076718532
H              1.6256116257045916              2.0903314744062556              2.4446426593169863
H              1.8838111073960726              1.8180129062592485              3.0271295985942297
H              1.8483126401868422              3.632065651741099              0.4736769908933365
H              1.5310433173254552              4.192420949588438              0.7672293339894699
H              1.8241535501939423              1.17776068134814              -0.37079847937739013
H              1.098020853415035              1.1509688563819853              -0.23107889450225577
H              -1.7679939683755181              -0.665893316753444              -2.6588991730745573
H              -1.1694450678438684              -0.7322564904611343              -2.2289259286884624
H              4.0149177442680495              1.7554451261765323              0.6209917743114053
H              4.382686125382724              2.317099166087447              0.6796215849821668
H              3.6765204388465955              4.611779547019774              3.145964647520489
H              3.760692890885325              4.459628445702583              2.4265525697714074
H              1.536009360580783              2.1428752479957107              2.275338636573142
H              1.9946300790277656              2.070343463986605              2.7983199189246624
H              1.902474789180183              3.7520281841453214              0.2802452771357873
H              1.4837471450019684              4.216985013214884              0.723620935095633
H              1.7969864428300824              1.149654378682566              -0.6128757661056159
H              1.2314481202113234              1.3040946476707018              -0.12836949860568034
H              -1.3950257897667158              -0.560830478760036              -2.3938205685639122
H              -0.8541424312441201              -0.8747574576635301              -2.2867754198690378
H              4.031542676972513              1.8149129848868355              0.6935449562428787
H              4.335120112154746              2.3978986912211533              1.0963623587608142
H              4.0856680763839455              4.111376856023757              3.1877677928745967
H              3.8276922002429803              4.524138503799245              2.6462121654846213
H              1.521105081224822              2.263399724134854              2.3387599869881437
H              2.0572507031792004              2.0025360988794767              2.80652808220005
H              1.7576631677525767              3.6797785962129077              0.2526868842329291
H              1.6699549493115315              3.9241129053458517              0.9506026606486369
H              1.4212232721102953              1.4545018120944395              -0.7254159155745493
H              1.7287462010387447              1.3206235543634064              -0.043117094998927706
H              -1.4388443761228622              -0.4950591263273661              -2.172295290306611
H              -0.7207036709614049              -0.8497655127808142              -1.880931262607521
H              4.482997777000825              1.7709119067027286              0.6113445631706466
H              4.352406382803204              2.4459010097785727              0.6870147221483156
H              4.165058656143512              4.18164772498178              3.1036202588664628
H              4.019946264639485              4.275288662508957              2.4330478948524954
H              1.7362555547470415              2.3266932781913052              2.6677068178392447
H              1.656837275262586              1.6786501137794536              3.1132901229951457
H              1.8627163282529986              3.7170231275499233              0.30631783885784475
H              1.6158556483452158              4.004139795225122              0.8754149431283589
H              1.8015914537060473              1.4666643193197775              -0.4202915898448677
H              1.3669893698200113              1.0943741971899268              0.015349441817283115
H              -1.6075532116825342              -0.4812942048439287              -2.303376724655872
H              -1.3108868959159896              -0.9696774803621059              -1.7332798907227411
H              3.9597311065489875              1.70903361427477              0.4947320241481423
H              4.434861104202878              2.176896663496456              0.778254318646461
H              3.880537018165549              4.06801830665988              3.2786588708287945
H              3.9895576401155743              4.127025652091931              2.545946996838407
H              2.0245774698622205              2.1636690024540224              2.5726250305822895
H              1.544667232827279              1.8509239597590044              3.0223795324024905
H              1.948530845299435              3.9004736820351784              0.399960319209228
H              1.3675905690186603              4.168893355890352              0.7282936665145624
