72

H              1.692277582669462              2.059877767970606              0.3423714559101429
H              1.7259563627014074              1.402738141350005              0.5181804162625578
H              -0.8223153526816727              -0.18290617848195212              -2.184076711033508
H              -0.18611156352963046              -0.012670692717998774              -2.2356723558991014
H              4.549614574409992              1.91621487147091              0.7334175632374313
H              4.563675737658311              2.5963314925882908              0.301051760264893
H              3.7587574377126933              4.385587741518154              2.6013408596802465
H              4.18284624339857              4.673094824049504              3.197308922725681
H              2.4927724195095715              1.3646739396060834              3.174608903940281
H              2.884443627453637              2.0175713118107264              3.2453298511345885
H              2.747796339047456              4.561916529323298              0.31854853273816797
H              2.253046673640633              4.116656473894443              0.7157882615548882
H              1.9684992053887074              1.6798855077858383              0.17378685828994947
H              1.568549756617905              1.4592656590936384              0.717452229076637
H              -1.2007283811799228              -0.05622689636019809              -2.099991450492909
H              -0.4822843261018826              -0.2661748013733223              -2.347163296153586
H              4.467809638628667              1.8606152883064686              0.49937396985297783
H              4.654303192318438              2.501392665428002              0.8352733378488314
H              3.6912412899107863              4.109021264077145              2.9707263236198758
H              4.0724029834913775              4.726624293957504              3.1191666839130336
H              2.4426673523346194              1.528054898033912              2.939823384520268
H              2.7781688805412426              2.0323677283700534              3.2686729060254045
H              2.5976639253934795              4.441052490658223              0.29058868675026733
H              2.125931879029251              4.028544047153032              0.689812843892927
H              1.6128390332674463              2.019856753904502              0.2528371109682949
H              1.9780080433200269              1.4798867058091487              0.5046037805576673
H              -1.1139912659364266              -0.07521399984761011              -1.952272181245879
H              -0.5658240371420618              -0.02360503368578032              -2.471249526378073
H              4.703384445040029              1.7971331339809027              0.7263429491342229
H              4.538249577817999              2.4960988940820714              0.3315910120954712
H              3.918527197145935              4.340549804497452              2.471137122838468
H              4.010071918685216              4.313190279914272              3.264549468068212
H              2.3855046161004454              1.0819204018554518              3.2549177175498802
H              2.6184030439941988              1.8312344692006508              3.357398990888156
H              2.46570432804597              4.3775340907232865              0.23375252976130168
H              2.1224552990807792              4.247430853139679              0.9074159281153282
H              1.7685329093310618              1.8703743446466252              0.2721005623691908
H              1.5658455378153457              1.3922764999271304              0.8404511244269575
H              -1.03286536007677              0.19503556194470315              -1.7890607205399087
H              -0.47651104581948345              0.22309397716863366              -2.1873136735968477
H              4.267551917674857              1.7712045545857247              0.5973913811117869
H              4.273386432549837              2.546260695471745              0.3431134819734318
H              3.9169038843860218              4.329383120767887              2.523271426370001
H              4.001964497999574              4.261673938122725              3.2795850332886314
H              2.4226891050129584              1.6100813702350831              3.2715759904848216
H              3.0533790966589214              1.3141947815500867              3.4081524021497134
H              2.280972907221029              4.383584011764271              0.20157024135729157
H              2.4199951936306907              4.466403405298512              0.943630678678961
H              1.724177977030516              1.7818550217442648              0.29258047574441165
H              1.2815739836817372              1.793676037941856              0.8145905486157787
H              -1.07675981378134              -0.06369885072413115              -2.112280403711711
H              -0.3573775667750968              0.21414692209229721              -2.2236131986203596
H              4.59126775775812              1.913910882079689              0.9293919345845146
H              4.466211967745033              2.517923058616642              0.43575813881791703
H              3.5903332105953303              4.26469999044701              2.6536507986224187
H              3.983418402061953              4.5503108602566975              3.22939994074973
H              2.407157343420331              1.4561604395721497              2.961687431170265
H              2.9958048697458346              1.7602257279434548              3.2555282413014575
H              2.8017229811563653              4.2262519191133245              0.1274525373830096
H              2.4229319987566935              4.608634345437151              0.6837380199134818
H              1.870851026829886              1.9546907836822236              0.2865078920146247
H              1.4702098973826787              1.31304948118216              0.4868920349309007
H              -0.9280613298009657              -0.13151950246178246              -2.3756856237480397
H              -0.16806491834714785              0.20704788529432827              -2.3840357286814355
H              4.4816873804380615              2.027057097241174              0.9791726255886862
H              4.475091069430361              2.5207766849109254              0.4690915389403175
H              3.64151745019651              4.258206350250408              2.7235129237230424
H              3.833713622046338              4.7072414312137125              3.3129124722616017
H              2.670092321170016              1.4883474976999473              2.8074482503728486
H              2.6626930021446604              1.961359840421755              3.3137080350093684
H              2.8687536594322434              4.196548502655466              0.14638259491103306
H              2.3209119198112913              4.072449125096312              0.6034102469890316
