72

H              2.2357151104627198              1.3388913488313017              0.8331586507861821
H              1.6425854830965414              1.748753497233275              0.77819546860647
H              0.4542775374024269              -0.8141686344045023              -2.0352487056614192
H              0.40813155615274477              -0.10111907848010175              -2.0915855765799694
H              5.626530404863475              2.675990445298785              1.4102050434274915
H              5.25482758166305              2.1131694871820947              1.4379107345099178
H              3.962889084809364              5.079324520634925              2.8999382244253487
H              4.44346585405459              4.429594696654828              2.939070810026085
H              3.033604495226837              1.3997702232370635              3.211805079219036
H              3.480270565139304              2.0429861897773023              2.9692767787035463
H              3.4577690097037586              4.060376642891018              0.4497670147697727
H              2.8962517325624524              4.575021834573729              0.6141479518481678
H              2.5245925342264246              1.317870847478155              0.9359996288774793
H              1.8990543175726244              1.6916812367776182              0.671617972283072
H              0.48169148960189756              -0.8016081898673292              -1.970298895026546
H              0.35036453365648784              -0.13294645728343243              -2.104638741059413
H              5.4559186640351385              2.6379019164459185              1.3076908531529108
H              5.216621787941446              2.037386014088361              0.9177246516592372
H              3.92859831934832              4.692140405709238              3.1576630917465875
H              4.3644270100514335              4.245302714105605              2.7292958897594133
H              2.9747240410168203              1.277341231870976              3.368072905160335
H              3.1791243999071948              2.0222628049973483              3.174634456412064
H              3.174382611296488              3.9694041801112276              0.6595370986813028
H              2.6084285759052173              4.408583474054319              0.5691478666644166
H              2.273373342762057              1.473440209616777              1.046829473678152
H              1.7442864360132788              1.922016696934635              0.866028619419418
H              0.4254698486602416              -0.6311353874044414              -1.5730469294838985
H              0.38343305189970306              -0.10687208375637222              -2.145787868805958
H              5.517041366584654              2.4679742677599417              1.442066593241535
H              5.31086004968749              1.9521992790892528              0.939828025922196
H              4.122906090421589              4.382586147708109              3.2478627154593256
H              4.300705458743059              4.249903238733272              2.550303799549361
H              3.312339667549944              1.3179255983365468              3.472645712151578
H              3.1897167679547196              2.0174126253070677              3.220427895875251
H              2.8074729662789015              4.1404164593216235              0.8499324348223729
H              2.6034541311037946              4.703624662935503              0.4243467906392235
H              2.194963592043951              1.5741457383231428              0.553249637401775
H              1.835811905338101              1.857282746573931              1.1038743062049383
H              0.4493676382905576              -0.5586470552134811              -1.718223091344437
H              0.2849126107515104              0.18116117907678453              -2.040542831513773
H              5.2828195082384894              2.5153059320491447              1.1604308619203894
H              4.898787327405891              1.8838471268086288              1.2756551659390596
H              3.828120897448234              4.5146596491937325              3.157015662903785
H              4.3273891448672686              4.18990848062802              2.678055573467412
H              3.722056422274918              1.3312042435378386              3.3284757785175083
H              3.0971820059591457              1.775456696265822              3.2150359634196555
H              2.8151337030140122              3.9556485656533096              0.5621980276298822
H              2.7941383849680155              4.686280619890064              0.27657197619112495
H              2.0002820810294057              1.653329222793569              0.9870757641549451
H              1.4816259943778962              1.8056826739552931              0.5271834617796457
H              0.6635052054255188              -0.4774866974748785              -1.8660754786898157
H              0.5740302386039263              0.18114133261744247              -1.956845786595139
H              5.392836761780281              2.4553377127015237              1.3720970687289191
H              5.0731413925408955              1.9058130443971437              1.052177361383078
H              4.036104870741401              4.8903136166632875              3.1206376992172635
H              4.076563427940741              4.296771544442823              2.686493912674458
H              3.4314615734667275              0.9617224123359182              3.1556130610101665
H              3.325131471793573              1.4603283360172437              3.6385685745427487
H              2.862649217740845              4.062341901448314              0.6498795291551918
H              3.013994118466411              4.82556107593011              0.5848268597084193
H              2.14883054039684              1.4240840381328155              0.8440798566672103
H              1.4182053896741815              1.6971529157895449              0.7774783279478822
H              0.945203703746069              -0.6324644362110828              -1.819660380209872
H              0.6370956810174165              0.06013379298839761              -1.7908128735504572
H              5.565510435515054              2.4082784102801846              1.3757976161586865
H              4.977960125136483              2.093940563110766              1.279412206522144
H              4.2008130437416895              4.925706437444831              3.2348650102848993
H              4.115398049819009              4.3721666398328916              2.702471659449643
H              3.4063503233983066              1.305282884882642              3.4621623560408343
H              3.1907140525406277              1.9692358797470075              3.1026325189870936
H              3.2754107377411947              4.081762231158443              0.49045175281680364
H              3.026148473753271              4.814027124837872              0.5460136588722725
