72

H              2.2159372357200935              1.473357875373114              1.4282343114144451
H              1.6416123727826049              1.5236710368074333              0.8668547770260953
H              0.4679729395466617              -1.0942839767235575              -1.8224321473240763
H              0.21016034627308797              -0.43681500285591546              -1.5000991165188746
H              4.609572462286215              2.3225045660140693              0.6460672983060952
H              5.120861249464604              1.8785432704608958              0.9588391120410975
H              3.7112993697165804              4.278835104088584              2.8063198756651464
H              4.262618502985985              4.762304846909366              2.992803028534842
H              2.6910775321739777              2.4056759184587655              3.405083280671228
H              3.1888975702936              2.151040562413386              3.9716416661518252
H              2.48779185900139              4.574167829146617              0.6734117156143731
H              3.0555883555807077              4.069028210853152              0.44278980327948936
H              2.2411542597532104              1.646814937794368              0.8924134473581473
H              1.5958024345570638              1.3969529788364592              0.9981094185344777
H              0.44589475294016073              -0.9625666587767473              -1.9027209695168095
H              0.08330586462452369              -0.5407869291084364              -1.4948721333690966
H              4.483978430302521              1.9454531315382066              0.687693608356027
H              4.7724737151559475              1.9802880177480868              1.36225507943396
H              3.483174842353657              4.549401217583427              2.829936403108663
H              4.156688710090172              4.704192479654163              3.0743240898956206
H              3.2151212062966517              2.581896655111926              3.5336042957378826
H              2.9087730816485142              2.048700832643658              3.7986218873499924
H              2.5625796539590495              4.282353279437911              0.38157777537485804
H              3.2972354959703045              4.2262727214943245              0.08550265995680455
H              2.2298111881070826              1.599555061225088              1.2106366515922276
H              1.8347388356061636              1.5257052781647693              0.5504968251520413
H              0.7126610989155873              -1.0981754340482937              -2.1532044656695803
H              0.2360761349572603              -0.6806522683625995              -1.683781369897327
H              4.784822048682094              2.1890188501089325              0.8653145686373708
H              4.852904738938554              2.132550432684962              1.6310748913909379
H              3.6176182403253674              4.811258779225007              2.5748551816494127
H              4.217714960809581              4.796312686775255              3.0071415882380803
H              3.038554091272258              2.328717423756915              3.424699592572551
H              2.901572472130394              1.8243220371184616              3.8924193585501916
H              2.8746256704841446              4.270400442748087              0.684418769259035
H              3.173201263416694              4.235527747659865              0.011385257162219229
H              2.347607123457158              1.2576858135328222              0.8379579968738232
H              1.6795280431247803              1.6400067349238157              0.8074212150394393
H              0.9615579400833913              -1.0892941489776358              -1.9143136356347548
H              0.2087396658420489              -0.9892789320931343              -1.6506437681241244
H              4.897106461931639              2.471666020967636              0.615948804474722
H              4.943354979520013              2.1626563810096617              1.3616744463175021
H              3.617344245072548              4.537158616762025              2.8787808665482597
H              4.3098278487478465              4.662060082607608              2.874802481165703
H              2.904343454321277              2.454820786588477              3.3966645835658538
H              2.746468945914716              2.295536626774199              4.1654501111081315
H              3.017727475832844              4.279512707300763              0.7750373875481215
H              2.848217089043441              3.9695880734439646              0.10506977467157141
H              2.450192522013158              1.5336170674349394              0.8555905453339613
H              1.7065962305917188              1.5484075719625392              0.745546094690415
H              0.6043918759612801              -1.2808183015306578              -1.8495600270906825
H              -0.08354173689208731              -1.0757494467484794              -1.8526239857889244
H              4.699246710978447              2.5133266849452762              0.7415631565578553
H              5.042266688339004              2.3541449541557187              1.3879942965871186
H              3.7240117043752496              4.3582049650824475              2.58426504170186
H              4.244054599789426              4.6527282169315365              3.0176056145887316
H              2.7029440836822545              2.451286248930442              3.7474713080680253
H              2.828318809130237              2.110441734793042              4.369063752443165
H              2.785086841906546              4.129714904883454              0.7858667689207031
H              3.092922871715005              3.926771483589662              0.1630811702403219
H              2.4988772787482785              1.1279649630647905              1.098736772012851
H              1.74707217965644              1.0569575186622786              0.8654811420463742
H              0.45640363817750346              -1.1496658214050193              -2.0101650147419514
H              -0.0011488454522142638              -0.7511138717404159              -1.7457649081552113
H              4.711632425151538              2.3348396647431335              0.6508412881779201
H              4.912744120094039              2.283628240063106              1.3889753072951283
H              3.8070041314349727              4.2379027739902035              2.598223268746108
H              4.095580025445982              4.689974916307741              3.1654586453766025
H              2.7310910013896197              2.265442809811473              3.5055507419526237
H              2.7952596962918834              2.1161347264992583              4.2122828561012575
H              2.536191985984234              4.14876086914363              0.6330749223275741
H              3.0279436468685814              3.9238452677396287              0.14821564018052466
