72

H              2.2081832996422923              1.549472697664448              0.8791092943000067
H              1.6881693872872108              1.902347546224615              1.3333221405579299
H              -0.15547633808430808              -1.1174756808303297              -1.7651182332939013
H              -0.8169451966424729              -1.1194792569534728              -1.6528325762238163
H              4.801827563827793              1.9872133594214803              1.091677709280676
H              5.067322349099434              2.6448276093448357              0.9696689472255043
H              4.287419177778653              4.920582872188008              2.617982783128444
H              4.299963938846276              4.711764006968957              3.319301246741588
H              2.264888752516221              2.11685560597503              3.8079874178856175
H              2.8553853155121827              2.2317233443836213              3.313518955321541
H              2.985503890917344              4.33765779196599              0.39848687547356026
H              2.888159136618688              3.6389576333239924              0.6426304029946833
H              2.3025772606017547              1.979120727165573              1.2436796632655531
H              1.7980978495327964              1.9432903599328517              0.7320271585566046
H              -0.18102814710626638              -0.9980572521248521              -1.7774926181154724
H              -0.8998849349311249              -1.1925540636209966              -1.7921583149029952
H              4.628830598635055              2.1569179826727924              1.278853609314729
H              4.915163975563899              2.7565757723569786              1.1336320477504667
H              4.20925259206054              5.015535485198815              2.3784612152632643
H              4.237650629894775              4.782960997052781              3.053839822698179
H              2.528570937569257              2.35519680605489              3.909515875698848
H              2.981422633869173              2.3564079151065895              3.3508880422933003
H              2.889613958273582              4.338899385114511              0.3438654672044063
H              3.0444435127213274              3.69930763317014              0.712997433592594
H              2.457549560670627              1.5089113739311373              1.074154194241915
H              1.8925593207772264              1.7061707393803687              0.7000635267152376
H              -0.09167523682217946              -0.9018823087053186              -2.1352147043044605
H              -0.6903121552723029              -1.3632822280744143              -1.9483261514801524
H              4.6396302866127535              2.0739596161913694              1.2005217978644795
H              4.958529867912994              2.742204399557887              1.3113325672011868
H              3.82035807092277              5.1198985223120985              2.428976986542775
H              4.183983438448535              4.6334346480171265              2.891965823833383
H              2.717278850793316              2.344575744699273              3.554057956307511
H              3.0658561262613615              1.9014344892997341              3.205927524146434
H              2.8029675890012133              4.264608226524066              0.19296573358247515
H              2.721035445253521              3.63063230102445              0.5777834393128469
H              2.2948835445350495              1.5404107207040327              1.0508849561800164
H              2.005543901653187              2.1619362252102365              0.8581522781509187
H              0.24428344360133689              -1.1830696653387471              -1.9419466199063364
H              -0.34343589636984817              -1.546899436191944              -2.098727491678544
H              4.8675456801528965              2.1244896480039746              1.2486211041709736
H              5.266334141270854              2.8149429249053455              1.2173587907419108
H              3.913914284240739              4.8192063344688725              2.5283567847807333
H              4.370342726191003              4.469227877180816              3.047538484302047
H              2.5289439641266847              2.2560793429189494              3.545115557466551
H              3.106552739481902              1.8906242626777452              3.2272392757937114
H              2.809373818382175              4.536399198111559              0.2960176616979607
H              2.7454172279238476              3.801073244990199              0.3855638948093823
H              2.1823994361803516              1.3844333424907735              1.0272318501635125
H              1.9216901365530084              2.064582038750459              0.9959382958189111
H              0.015593814011024956              -1.2834327664635952              -1.635654177939517
H              -0.6235619430709789              -1.4442475311261325              -2.114191424574961
H              5.005089800337993              2.0851660310303406              1.1569993219938648
H              5.026031543061106              2.8040878527287565              1.376456204407735
H              4.306317920504236              4.642464758907877              2.5532461073937807
H              4.443595817864944              4.572963469734853              3.2519030851087587
H              2.557179191293203              2.370357645760304              3.539904431917389
H              2.9477526723379524              1.8224621612574945              3.6625140879364806
H              2.693689838280702              4.499384688107068              0.2257668943748993
H              2.914311174902907              3.797553445045551              0.20186962478770387
H              2.4355426768941735              1.5811725959682479              1.1220124038906116
H              1.7192776436033592              1.9016615476365475              1.1664611085534315
H              -0.21962127778540985              -1.3352901922291651              -1.877910574034416
H              -0.9133355743537823              -1.1990222201441505              -1.8745668987671082
H              4.826947792975776              2.2292496497325174              0.880551600346742
H              5.103574026106594              2.6125431697071724              1.3963797069406674
H              4.49635465761873              4.85586661709646              2.5143349549280756
H              4.390379993074586              4.720959709422659              3.293864165714752
H              2.3825123846107092              1.7420926249501638              3.841006725535042
H              2.967279786333855              1.8925362938832413              3.3871671246175876
H              2.8790709792435996              4.50472865013174              0.2536929749997867
H              2.849754436668207              3.8010358124891765              0.5521875199666915
