72

H              0.9064877766845915              0.8683762094493017              -0.2673606737805094
H              0.8705238111622104              1.4275745812379352              0.12533923722354937
H              -1.3868252149724547              -2.1060997194905116              -2.069751726551253
H              -2.1012479873952703              -2.134652035236867              -1.6765807879334664
H              3.5507907365797227              0.9647267946666441              1.1229042735215453
H              4.111207002123276              1.5134628538874817              1.0254462264961692
H              3.6857134107509846              4.016506830303881              2.665707627510682
H              4.326178759999926              4.094233863465157              3.0194040646500313
H              1.623520304992549              1.9144746819778964              2.884639433058384
H              1.7404011999291198              2.210927746187106              2.1644488277349923
H              2.5252961261641107              4.071692889891507              0.34613074954950396
H              1.894462435907005              3.988887202915865              0.04629163979846833
H              0.6826723224249722              1.0510636219929652              -0.2813923625556317
H              1.3202509653403125              0.7500002792975334              -0.2167627146573967
H              -1.4268293975613016              -2.253973300606967              -2.356661217465182
H              -2.1029627903876538              -2.2366247365357              -2.0445221040619876
H              3.7875790755422907              0.8997057126935905              1.1730714990097715
H              4.491793039891028              1.3402586302285076              1.1780219255883015
H              3.6610084855860894              4.1318332841057295              2.599253445328197
H              3.8228787704203637              4.062355608700137              3.3253780397895767
H              1.3137915499997959              1.8979389613925544              2.490762388963897
H              1.8522739271698452              2.408928070827492              2.4787111839862237
H              2.555826326711009              3.9477001387169284              -0.22488747203057854
H              1.9528332708305112              4.035411817876638              0.25127457862876745
H              0.45329923565012353              0.8587738457628894              -0.38625608591640287
H              1.200252600942241              0.7928456166635536              -0.22525064973155098
H              -1.1078558703658132              -2.13617400375367              -2.5218453729864487
H              -1.6324203056919349              -2.3110375931349507              -2.0160577776490087
H              4.075034360659313              0.7526844529823196              1.1735264022789202
H              4.293064587909264              1.4715945539391395              1.0835594279781384
H              3.608421267666347              3.9161633553048443              2.5750862530389367
H              3.765531712558554              4.431804836143432              3.1655693717206677
H              1.7158623994203372              2.1514383972870896              3.001614936795956
H              1.4014717942211288              2.2394277957950925              2.3648301595410692
H              2.484978634966726              3.9443214209141417              -0.25023226497276424
H              1.9178990780327265              3.8798998539484737              0.20168195908688621
H              0.6764930488474408              0.9083800474273404              -0.29579799450519895
H              1.298040302385117              0.692839958794544              -0.6166989092298913
H              -1.1078124194737282              -2.0555717926285837              -2.4611778614567936
H              -1.6972917631894249              -2.369873596202046              -2.001814382351132
H              3.6467551354481387              1.2087567664705379              1.2495963299715067
H              4.129419993386566              1.4503467814087978              0.7585112870347425
H              3.672322213051984              4.05555325966769              2.593852757883731
H              4.240741984506664              4.301637742889358              3.0111527128909725
H              2.1300992493663244              2.3103190448966306              2.931183163917556
H              1.6889870029200265              2.0775960088067706              2.321971319847117
H              2.704931200874215              3.864109574129949              0.1454250037676944
H              2.119026732590633              4.15165733239443              0.3569295961618353
H              0.8554838102034613              0.8833636496555395              -0.08524917061819402
H              1.1108846705540905              0.8151532644890994              -0.8351900766506731
H              -1.163158363447675              -2.222960947808628              -2.2416179118992328
H              -1.6926173450021391              -2.3292431915486502              -1.7970335155488455
H              3.77801323210295              0.9329391727187804              1.0696718164627061
H              4.14487033065581              1.617046612756777              1.167466517512975
H              3.6789778317321598              3.7267094924412505              2.755843033299375
H              4.242880689241861              4.058375810917044              3.126628592573455
H              1.610608719076144              1.9600059610575176              2.886380346174827
H              1.3671056858104398              2.2483003778632513              2.2389937251864658
H              2.5697261092237915              4.387508343553547              0.1810665805767478
H              2.1787407504122633              3.99449609693757              0.6599075438274409
H              0.7717209922887681              0.8519881201140386              -0.30883726962440805
H              1.3661723294610746              0.9860239711267429              0.12104010892711872
H              -1.2480652369413603              -2.0832059807360723              -2.1094823641642013
H              -1.7050872948109583              -2.417647806053439              -1.6434491991537181
H              3.683088492683509              0.925063727146276              1.4013358801618672
H              4.204412327357995              1.3756887559528983              1.1901667416085644
H              3.911786548915988              3.7438625802253562              2.6548203706362226
H              4.32183989307448              4.112889050229303              3.1614155340704255
H              1.3493071663355114              2.03610346355212              2.688979435299636
H              1.8658445187291457              2.1423818315768037              2.3067135184122733
H              2.442928248698949              4.281088761939373              0.5485322405284304
H              1.9152255268244907              3.847840573880278              0.3593940747228261
