72

H              0.6671405335479658              0.9033662552917276              -0.33748005805253545
H              1.2970522851374926              1.0079273871987875              -0.6860179170075784
H              -1.0121115923786856              -2.4981201905150385              -2.1418406303411848
H              -1.6412305571890422              -2.690387965888773              -2.200977670401706
H              3.4960494620482807              1.1322104082925577              1.4619659846333413
H              4.111946831981388              1.4003294693216215              1.079081054610175
H              3.673289080995296              3.838690069540226              3.142457139506068
H              4.273150562967319              4.032396874697344              2.8353360896461135
H              2.0037156498479622              2.3201519640300408              2.533231309487317
H              1.1859963567550826              2.142242234533849              2.5227530039236137
H              2.7686272601693074              3.4896653339667947              0.07302335667022909
H              2.1103307944391143              3.7685265443617912              0.2650560190457374
H              0.7639247010068352              0.8952206007243289              -0.42669673846914113
H              1.5082251020230204              0.8492141877123669              -0.5564646154762252
H              -1.1638971930549504              -2.573959762456246              -2.2689216424092846
H              -1.9596831296927126              -2.96617329152845              -2.1604572505351296
H              3.8658873517973484              0.9719685540977514              1.5121508380052933
H              4.561990760625004              1.3136586666021404              1.288146021207315
H              3.660952677574432              3.892464968755333              3.1784464022780443
H              4.3834416863786725              4.0922567267572              3.024426229480995
H              1.629089199776027              1.8785772276644204              2.328295893458441
H              1.1698279966729015              2.5190915185750407              2.4578692071715755
H              2.6229656454200723              4.11010891741018              0.08745918140983297
H              2.1005102722723237              3.81726388252967              0.4636168277469873
H              1.4063996982592177              0.8067225670142868              -0.8482290830774881
H              1.3425301885051804              1.0492681109662307              -0.20550635086044422
H              -1.1923199956488815              -2.309339391152549              -2.225285217425782
H              -1.7675711506734655              -2.790939817934207              -1.9568410528030158
H              4.010028024633645              0.795426849005957              1.3588310660801162
H              4.458558459544685              1.3242830074279222              1.071382097101028
H              3.868462940564935              3.6766926645142144              3.2607704836635096
H              4.226131866681718              4.198536530466219              3.0403904208041443
H              1.4159181775513012              2.089986038600247              2.795149092960361
H              1.1629176422887613              2.5596535253544688              2.2257695446856762
H              2.3785591485250808              4.265466990323584              0.16110970860275317
H              1.9904945850581466              3.6516200729023325              0.1490356011671253
H              1.7370165057731115              0.7696930518555194              -0.7228471953318594
H              1.5009956113388851              0.9579893040055909              -0.0942922295184163
H              -1.1797477703296615              -2.29450267129504              -1.939851491441189
H              -1.8102308466543748              -2.4643987016139306              -2.0151329374708227
H              3.8868753528142714              1.2175916865229182              1.408464154520908
H              4.382836329016328              1.358469258408458              0.9413088158393123
H              3.984822117259835              3.7919698290060984              3.1788008332717697
H              4.573840045370693              4.1596842874776945              2.9242898420662775
H              1.6437435450818378              2.117055879328039              2.8032455489716934
H              1.3785483431166774              2.392294957339098              2.1896473491173487
H              2.796400151507626              3.914354120484207              0.2868854809028087
H              2.118232214581634              3.8796595948724257              -0.07047049352966986
H              1.188660407120282              0.6455708876065178              -0.7807433059591333
H              1.449441651014054              0.8617828968763136              -0.11427035044609135
H              -1.0728743556914495              -2.4829612551174565              -2.046340038657142
H              -1.8316460568883373              -2.4186938591859817              -2.16760942595722
H              4.1349182448541315              1.0216803926170726              1.33266259790067
H              4.568984428452972              1.604324590069203              1.2732040834604388
H              3.7416455318250477              3.4924857820064643              3.2306784440166596
H              4.091433363021186              4.182392977377371              3.058939366572922
H              1.2441444534442925              2.084241289855926              2.842853158023144
H              1.212168518221303              2.332430866664729              2.1614046087927923
H              2.8600483865411346              3.814653404852052              -0.3915058794573492
H              2.357979746090527              3.618103794990724              0.16389629157024463
H              0.9856340557557032              0.5887485978253688              -0.5315578754755786
H              1.651866781510175              0.8191919334210641              -0.4571448004774691
H              -0.8656074737534274              -2.5397427495925844              -2.326952792476955
H              -1.5539798507498563              -2.6469567142120582              -2.2206006982978757
H              3.889643384408065              1.2193546849471              1.611054742539384
H              4.44543208120734              1.2552010037252739              1.1197268835209373
H              3.6537225653081165              3.554087341737111              2.987475318919348
H              4.002891607379764              4.178113535088449              3.005424922060229
H              1.8120964093609826              2.2926219965297676              2.6187695024988633
H              1.4747270623693438              2.39033111029332              2.073477183692949
H              2.7780689044912004              3.577208947596412              -0.22219214542514287
H              2.275027483271788              3.7033384059890757              0.3436215070028817
