72

H              2.430322370050948              1.4134010852221761              1.0751843613887744
H              2.017655321006218              1.7628717527693927              0.5119475490092172
H              -0.3666140533750011              -1.2801002606198588              -1.9678329231035456
H              -0.6160142876192349              -1.7781070902172575              -2.3390374600203026
H              4.99915018428898              2.2143539303001103              1.674409288755913
H              5.201580660136788              2.6963727539682893              1.1455608395680315
H              4.230559329160704              4.834525408443068              2.72231060454887
H              4.121367949766506              4.111056372369693              2.8845577954448185
H              2.724599803054974              2.088297099315245              3.699314927793849
H              2.9860016840025243              1.7273697581757474              3.0979232482707117
H              3.012612932593023              4.454734316185449              -0.037096365709833296
H              2.77773389261973              3.982306872182651              0.4887192193406344
H              2.09555064854558              1.3116773262000774              0.9936262269282855
H              2.2284599501205              1.9678395663894377              0.8850809362566727
H              -0.3524388046188868              -1.3036233509930975              -1.7154972177198309
H              -0.8158839613035294              -1.543795066476199              -2.2925216816369494
H              4.953163179392386              2.2832633908605406              1.5039224097284016
H              5.195380022514817              2.9406675052338747              1.3587958973676142
H              4.540556649216894              4.703123591337969              2.5403966542472642
H              4.615821545159273              4.324494882120682              3.1325513746369102
H              2.524792956071861              1.9753803708743862              3.666857968858695
H              3.1536707748257236              2.065329610085424              3.181474424840354
H              2.8827820958458927              4.554000862379833              0.30767099928610503
H              2.677224540878829              3.8859950733081132              0.4222626635378326
H              2.330178117220773              1.3537299149511903              0.8906624665969163
H              1.8391281143535219              1.8092668846138413              1.287179682864594
H              -0.5860790449587155              -1.2778651142729662              -1.6154138679839116
H              -1.248541946144411              -1.4418767189676094              -2.1119107824575067
H              4.716496937242475              2.17822974297741              0.9900498613277456
H              5.016156704183522              2.9312611866525407              0.9814106680274106
H              4.6020433848241975              4.772368638355819              2.599298715468163
H              4.508105682266859              4.455283157131843              3.2694725617686884
H              2.86165016479274              1.7151665942359098              3.7929403693125154
H              2.8191507239079825              2.078569983499993              3.215254504177679
H              2.8934073417923165              4.68348478446634              0.2732638147016906
H              2.796867015166872              3.9407203468583645              0.39812611343444965
H              2.2668876149453925              1.6190394742947782              0.7159180859005778
H              1.675905085563008              1.7021970811752198              1.1371085041360511
H              -0.5722871172890329              -1.1284659557514138              -1.7614237751437807
H              -1.2280989080883746              -1.2934072846021614              -2.1017629390897916
H              4.8903378792814              2.1171846113619264              1.4381393104106623
H              5.209839920068825              2.5888557473610034              1.0376167263670502
H              4.476600901616215              5.037213073281733              2.717089619840172
H              4.307270015819045              4.422717664440347              3.0065593340717887
H              2.592854892287662              1.7408193341426381              3.943838590130465
H              2.79117286775342              2.0312546444876745              3.262335303869123
H              2.915931911342217              4.391800257465414              0.5273652866839317
H              3.042290814359456              3.6782286201488104              0.3963242724503181
H              2.2851243641187033              1.4019251645272885              0.9748105057841112
H              1.7962360492288032              1.9024906028749622              0.7955370427331209
H              -0.38640386562345447              -0.8955765166582076              -1.7332992509105254
H              -0.9767268839796207              -1.3291020439364098              -1.9648124445238482
H              4.717415219967318              2.3666807442666515              1.5212872197052578
H              5.012179963626733              2.7988168853503113              0.9967939229202857
H              4.43242338836056              4.9461106230426575              2.4759333961525773
H              4.5098683344927              4.518539474953822              2.989267791696075
H              2.8009919747150347              2.0179507486414274              3.7379721732101197
H              3.087109645058657              2.4903216362595186              3.276654461484322
H              3.1911565648969447              4.452477244310595              0.6441270327426433
H              2.7386292454186982              3.9932405942750995              0.30272447506487155
H              2.311837417722819              1.3411022432706283              0.8405159834069054
H              1.7056503911733043              1.853881098573718              0.8480157182285963
H              -0.5004040477879613              -0.9975203641812393              -1.8326822488293035
H              -0.9405392839078105              -1.4123882669132957              -2.116710091243444
H              4.5747046007929475              2.307269518968095              1.3763176452507027
H              5.074158365764323              2.7243975740586484              0.9899547340759184
H              3.9958848778168408              5.103056756388177              2.5560883889904042
H              4.3656118654079945              4.413905139909992              2.799092002580609
H              3.016947623415665              1.9597236297972054              3.6827566917960843
H              3.1581212301673074              2.0776094510413343              2.958330516671369
H              3.12125396984964              4.504677572377301              0.3122840188792554
H              2.6569368351787928              3.9724457754085027              0.49472251179867544
