72

H              1.0317765592175792              0.7161057414507175              -0.5560819470500244
H              1.6070869501529128              0.8138828629046849              0.03616003038529738
H              -1.010957915558249              -2.123007937413697              -2.1627625157515302
H              -1.760655990306842              -2.3163006167744142              -1.8482822896279005
H              4.091303812895147              0.8706023644079705              1.287561305657718
H              4.433977124096717              1.4222422268696824              1.055806513361433
H              3.9798001619036847              3.7358516886932014              2.7897277281424366
H              4.2843660009186895              4.216429317343447              3.212298522287309
H              1.2924685594479743              2.0558618209148602              2.882031250650041
H              1.5706650338190222              2.3638885099523166              2.2910830781322984
H              2.620412716519715              4.312299386160269              0.02591761827577496
H              1.9828128273759569              3.9370122306328637              0.27942637266373543
H              0.7633609788976836              0.8645735582271508              -0.36969546028330047
H              1.3893498010970218              0.7546789867204275              -0.04333675486284911
H              -1.026285193642508              -2.2191825165211534              -2.0132609829909778
H              -1.6692684164396543              -2.119906085851393              -1.9241809906601373
H              4.08893964275249              0.9187803955724064              1.2323735955609614
H              4.179714416723291              1.6305734660384124              1.0921698269769031
H              3.8455352858351706              3.660531250470813              2.926839463354824
H              4.187773260286877              4.2631504298346785              2.9834741353690886
H              1.289621550224142              2.115708323266795              2.963199036761374
H              1.8143306088721904              2.1885252321687454              2.31372214592761
H              2.876324903986465              3.8799972605042985              -0.07449272515263436
H              2.12795308485649              3.702449195701364              0.0008562722823465155
H              0.8302416931672919              0.5946589276020149              -0.28286755239206746
H              1.4367051505449573              0.9598671970501104              -0.4711197048258289
H              -1.141823607422904              -2.5294778860265246              -2.279520851268693
H              -1.6810827073976728              -2.196866008797347              -1.9739806082707143
H              3.6659529824372052              1.221129424258656              1.2931774585677918
H              4.283652650820238              1.3694670896896102              0.9783243861403811
H              3.523162082073435              3.7852533115074185              2.713059540719692
H              4.130373116220715              4.002148455643223              3.0755716225983765
H              2.061680774671362              2.060477318824459              2.604829154157774
H              1.550920186795958              2.3465866940342393              2.137229471711487
H              2.8436891407791354              3.9120148800722547              -0.13141196487631865
H              2.2470067389892696              3.9452214788009887              0.38840551175514815
H              0.5766732572321223              1.0426907890501858              -0.31255621752186746
H              1.2816839391468449              0.9698713899829793              -0.47227999241844903
H              -1.0721631617256988              -2.298140981527081              -2.2360187091873325
H              -1.7667009762990122              -2.6747531576580736              -1.9389376414171977
H              3.4853307402323033              0.8610556247118271              1.3041583129114445
H              4.206115885566676              1.3003845119725248              1.3980775637142904
H              3.5964634644310784              3.708444494198857              2.7644760904032086
H              4.006580790304767              4.077705250164195              3.212788622855115
H              1.7353349375408886              2.143164956002749              2.85903657173753
H              1.3260440897277443              2.139253994585767              2.292472378891174
H              2.5460387270104254              3.7741376992668334              0.011898186960220745
H              1.905444164493807              3.8133030309537075              0.4190949842916465
H              0.6763583376080662              1.082867577959722              -0.3055691624526142
H              1.2942537973080603              0.8034190339900654              -0.5241169568651646
H              -1.42924050260909              -2.2899604108076055              -2.3311615699018664
H              -1.896928345619928              -2.762054806451115              -1.9905880733263228
H              3.7639419306281807              0.8950800579992961              1.4378917491965881
H              4.339132261898054              1.265153702970387              1.138586703762284
H              3.6177370226257417              4.200063008213488              2.831645521948918
H              4.263635125941699              4.294096256035639              2.9129119654746725
H              1.857462519420393              1.9731298784137317              2.8362788961115837
H              1.5329617286834565              2.273980687169096              2.1939157818471466
H              2.5011165339554218              4.104692751912188              0.42099219397477944
H              1.826118918566101              4.002739203416575              0.17841108531853117
H              0.7287296704034751              1.002965458360072              -0.7535015635260346
H              1.3588267262287042              0.9957419170781608              -0.3227111989995954
H              -1.4815232332415336              -2.1150821268832174              -2.4041040028329275
H              -2.0521693465549946              -2.5000073002185372              -2.0130235233789957
H              3.7535694992024267              0.8088580909602928              1.0978943641983736
H              4.3202031315869975              1.3398269975183              0.8598479424902813
H              3.629937336739714              3.994086317739591              2.8712774432764747
H              4.216604499291518              4.262929884129895              3.210975302383941
H              1.5923931673993184              1.94748287391524              2.8778622231414954
H              1.4477510151285822              2.4419193240127655              2.264853776429529
H              2.482701323480294              4.2848163632331975              0.010200077144991318
H              1.8426355114629749              3.9895868863450987              0.27962151690222753
