72

H              0.6958760091291825              0.9938761904959429              -0.4064465082271486
H              1.2334613520412252              0.9185720076990428              -0.8855342287843604
H              -0.9693580027745357              -2.423296777795648              -2.289367866906126
H              -1.7559381322396495              -2.638638083190943              -2.2628724857066262
H              3.6471505807161386              1.1532343441753872              1.411758734215333
H              4.1172229086773              1.4286802182152682              0.9352753298159899
H              3.593579343011921              3.8916260150130544              3.1444177269575784
H              4.25872838036798              4.135126685380631              2.814306983029506
H              1.994106634773954              2.2886022337515075              2.7089399649573593
H              1.4266385447645575              2.286434478926333              2.322629032440113
H              2.8068729729693676              3.5667716802681304              -0.05074227975030849
H              2.1772930655275053              3.782104594113489              0.2845350780042699
H              0.9249725477683972              0.7623028325991806              -0.5103408491890581
H              1.5720263551457903              1.0266647964020272              -0.6504880153573976
H              -1.0504421969148865              -2.604715966213441              -2.252077459875743
H              -1.7491897205614095              -2.7164601021232175              -2.042555093705743
H              3.824609008989215              1.0258739780881383              1.4630124091001429
H              4.442102275199468              1.3254780495999876              1.1449194252956314
H              3.7464207136792096              3.7520026149144954              3.1460765490137623
H              4.403100885217303              4.004749131047859              3.0207398373468437
H              1.6785560029871613              2.026549423157313              2.292025480576231
H              1.1811439927481213              2.443523755019337              2.471830790416689
H              2.633376150847261              4.228541030485103              0.12528195241048426
H              2.1898506176294616              3.883055038899115              0.5740725041389736
H              1.2859755662552272              1.0065291354120367              -0.8011883953125659
H              1.4509315792295818              0.9913629199325362              -0.07855378470961864
H              -1.141065595034517              -2.3061192377563544              -1.9832725172544101
H              -1.7064360199887902              -2.73911533125101              -1.8791133842268657
H              3.9228397037893603              0.7575503664827815              1.422777740762234
H              4.369498484015343              1.32688749323155              1.240865376034419
H              3.9649291195092617              3.5540193958493074              3.2763831962939727
H              4.3920990719567286              4.1978490301683715              3.012053850241198
H              1.2452032364012358              2.0601859136560225              2.888392172049571
H              1.2621453616000726              2.3660512420969244              2.241709162975337
H              2.449486641849546              4.150588522327675              0.3058262356700733
H              1.975101016680609              3.6170073587176756              0.13113431944985418
H              1.5328524952489544              0.7159583787104667              -0.764376712115939
H              1.5331439104241325              0.9966844560498239              -0.04693165571993508
H              -1.2349586315500538              -2.359868809019002              -1.9970691507703657
H              -2.0433197472527294              -2.4788067565989156              -1.9519301249086607
H              3.826882151527319              1.1464466566548033              1.344288449247786
H              4.435987974888295              1.3662175919703046              0.9930845540369847
H              3.834379160144242              3.9213519005591606              3.132782872897845
H              4.509705565349523              4.137289694406651              2.905250770964199
H              1.6954948822709626              1.9384860480617814              2.710865805170171
H              1.413101575672421              2.4304075908877114              2.139759033673851
H              2.732493193356081              4.022836977733878              0.26107808020569795
H              2.101406495677323              3.869485223272415              -0.09228689395235906
H              1.23377933808451              0.6242933142583114              -0.7997552474665989
H              1.4440765517714784              0.924692280214688              -0.11604907387124132
H              -1.2017743826488907              -2.390032932095314              -2.172101865914816
H              -1.9221057889199373              -2.5069019422823837              -2.183494150134916
H              3.9231787535160785              0.9982389666919774              1.2787917563314357
H              4.590689860874338              1.4007800461169588              1.2221068401174433
H              3.67560270682064              3.5559903664093304              3.0399592787523737
H              3.9638607416003997              4.200273911858995              3.2901325227079776
H              1.3667798701875815              2.0596664542603578              2.850387721862586
H              1.2042558926923261              2.383401178610554              2.1981676171283246
H              2.6859433824884484              3.758081445480105              -0.4039376764908792
H              2.226912545572077              3.72922080276279              0.1162582231608149
H              0.9318439299785582              0.6638659316335086              -0.48062185480552155
H              1.6887325217926534              0.631995932779712              -0.4518627352323876
H              -0.8741551017945418              -2.4405372659917695              -2.3218022374553144
H              -1.5856807278146043              -2.6800149017628248              -2.226023967397173
H              4.027766380349018              1.0132641039666952              1.6153864181100606
H              4.505580210034988              1.4061410421561882              1.1694457105190537
H              3.6226686418691263              3.6577934917368653              2.9345208242387453
H              4.01735663219564              4.311694023686073              2.981824335837917
H              1.8154382146534782              2.342797010369368              2.8242653417565036
H              1.401003908863493              2.336892931012133              2.09875830652702
H              2.7319500806264037              3.604080183546438              -0.21013402835488154
H              2.1659883509503066              3.7636797679744443              0.23264760963287068
