72

H              1.3993539269460908              0.749047595606416              -0.5580187110952458
H              1.1975579696725354              0.9082734173649832              0.10814190913396812
H              -1.2252023038171298              -2.5131479387714704              -2.035803016670704
H              -1.9510536325547372              -2.8728705237009358              -2.2173344762173706
H              3.998109157757639              1.3536941447070339              1.5370455473993134
H              4.6708911190863684              1.358224220359133              1.1684869535241504
H              3.8789548680612116              3.6213859445126575              3.3608150143799294
H              4.315844959381199              4.092803057826488              2.9250499849698954
H              1.4004209825997607              1.9179876634578157              2.5025972537830112
H              1.1658443180573255              2.527729293902603              2.070952778086617
H              2.8309175920859038              3.9985488585528977              0.02161919913226284
H              2.249738403072422              3.553354082662317              0.20149194745018856
H              1.2707832905424983              0.4439659665901667              -0.4892948025403013
H              1.1339076637885315              1.0522678474223415              0.08734826318027651
H              -1.0685362407533336              -2.2876846162077578              -2.1556064759967035
H              -1.676671944196883              -2.870050714579293              -2.3009843507205376
H              3.852715718036457              1.354636945436223              1.4470725634865196
H              4.545742350270501              1.4221972103961227              1.0832097008727302
H              3.8074219259272812              3.4245569156862565              3.243155458447588
H              3.984286950317055              4.086222357854556              2.999014606536596
H              1.5867186316122206              2.1900763086833908              2.389120768728552
H              0.7904657845835694              2.4210314869778933              2.4252958617648748
H              2.84248426242441              3.604012826336573              -0.15767401033208356
H              2.24961052810459              3.60878269884956              0.20622343437741433
H              0.7734405861238741              0.6123299367916127              -0.3897557840281769
H              1.2569630422748437              0.8219627282038239              0.07411806621992188
H              -0.9856280286226328              -2.514443411196994              -2.161612338840626
H              -1.509889948555806              -2.8957150749326535              -2.5077423656715934
H              3.9971500951893333              1.3829995824713976              1.7859950044493147
H              4.5149080408350795              1.516061165134549              1.2122116897236757
H              3.7210450863820155              3.674844742587382              3.2475113172068735
H              4.224683087839416              4.090742074131741              2.7800427120974582
H              1.798224203978596              2.213564726648886              2.3419374112847295
H              1.038491940969588              2.3937562539327253              2.489447590620107
H              2.94604659074756              3.239648202988301              0.0036865030756701414
H              2.3908158455753323              3.630826779727829              0.22209907675166166
H              0.4697465705440956              0.5833320162670564              -0.46144498295530595
H              0.9339920601278677              1.0812392700840845              -0.2190962944190404
H              -0.8556952069627874              -2.667841801530818              -2.374402605408527
H              -1.611691219418714              -2.8149024764591357              -2.4542334813406748
H              4.002192636159607              1.3051560400271187              1.5617174521049586
H              4.3461140984392985              1.5795031779367097              1.0327179038573582
H              3.696146067304978              3.757546983173874              3.3903384466538085
H              4.027006510469111              3.952494684330821              2.734833861445917
H              1.837579176947945              2.2890888473957913              2.4217818714455728
H              1.1181462235479818              2.4361936992685473              2.217221118243096
H              2.7893223152758995              3.707913355115166              -0.15120591326834384
H              2.5539399098963256              3.4861106463662654              0.5131692231429028
H              1.040873857436422              0.6210226108614407              -0.3203305686350931
H              0.9719374511969312              1.3160031488428336              -0.05922572218428571
H              -0.8093745274679655              -2.6429578253542707              -2.128400652993411
H              -1.4867954542990915              -2.840672311098824              -2.2321864681197026
H              3.757344660714263              1.4240160190439228              1.5028299838780523
H              4.308173143907623              1.1276755475340174              1.0796476365148906
H              4.003879042093197              3.6166570809451306              3.436488586878944
H              4.4380676117900215              3.811988280664504              2.8194139538751877
H              1.7298848952637305              2.22991616509909              2.3058447105957316
H              1.078320682657477              2.4317356889745074              2.338335924534199
H              2.872888839335165              3.8983912723187517              0.31538809067032547
H              2.2236766377119124              3.7526199801870535              0.5501289439437594
H              1.194393722090537              0.8824713140469955              -0.46960604332554384
H              1.1508011167457017              1.0133556361999636              0.23926072165415252
H              -1.056739722932904              -2.6122803652196422              -1.6844223607432596
H              -1.591618911015672              -2.7554954166322125              -2.060363073081264
H              3.945799745383871              1.0177806162026402              1.553928885599045
H              4.493967261262185              1.5115714364112962              1.3136909129544518
H              4.226231516573363              3.6963907379888736              3.556862293895092
H              4.460674792258617              3.7823219795399914              2.7831538586845994
H              1.344145434434192              1.9849164927454475              2.613690021691586
H              0.7291796638814394              2.4027514186035477              2.4040282353614177
H              2.7671004088176097              3.9693972188374342              0.3932720431219077
H              2.1763310629244894              3.570350650796596              0.21235851760538982
