72

H              2.389606265856466              1.6618706487661978              1.125265942671979
H              1.7536081808516648              1.586124809414303              0.8311623391342283
H              0.7396422674014704              -0.6174433814330057              -1.69028106215654
H              0.5773137926575308              0.02495839794740178              -1.764598570725923
H              5.047756081109542              2.505271112903613              1.0432197935386893
H              4.786507117226024              1.8009724434542596              0.969923675520987
H              3.9466750680814457              4.392715720532788              3.2242615174022786
H              4.385960708373803              4.565206281624729              2.689308138737994
H              3.6998481074114706              1.5604697559446419              3.2295977247259566
H              3.1123359954174457              1.8936099639085584              3.4105916408583195
H              2.425080812740595              3.9544225675382374              0.4146143268671448
H              2.7561352240684798              4.584265108088286              0.40832716143585673
H              2.079920193078218              1.5919496152255823              0.9591346532377447
H              1.6517110686969005              2.0532471564821              0.6780931688745109
H              0.7500743341556694              -0.8296841327292349              -1.8208630732477706
H              0.7632776671313475              0.03128351858475327              -1.795711557521545
H              4.8934662485294975              2.4795387513845935              1.17320994703429
H              4.871405146823768              1.6736067867005011              1.2223298768923767
H              3.793458726992899              4.822933609323836              3.1831986844735987
H              4.3253745292018175              4.480573197570955              2.8624209016661295
H              3.66302829244331              1.1061061287948215              3.4823797110546852
H              3.0811500542248194              1.6455297237820303              3.5247223766652542
H              2.8214738178785015              4.043131456833908              0.6059820787463197
H              2.9435989153078643              4.634968211431883              0.1334202139637188
H              2.309921626257877              1.3619864823658836              0.8874031359705583
H              1.5854968347623313              1.5557883559197356              0.84303024998773
H              1.1150762349226138              -0.7821172357593751              -1.8651683593135886
H              0.7197825774481019              -0.1968054874631193              -1.7498127963126644
H              5.192087040507049              2.419678466579458              1.3468657238417934
H              4.846503964814102              1.9607728496057824              1.6976838538335066
H              4.045875962154439              5.099408624451765              3.2286025127738713
H              4.443216008810966              4.471215629771774              2.9237369066479606
H              3.3628756417743424              1.2745456690582042              3.450542567620338
H              2.9434162269910993              1.8772057866165313              3.3476991638969507
H              3.2265405917474634              3.9490040667387114              0.46817220911763435
H              2.962453734824208              4.623023632875829              0.23638919109321618
H              2.2399897777524864              1.6101236304677744              1.2513654536329293
H              1.757070324410859              1.6579102425669754              0.6277386812900132
H              0.8830274836114466              -0.8902780010001097              -1.7886180908808706
H              0.4713255458235983              -0.3574169144924111              -1.7956815408311135
H              5.345059843938401              2.7220740520101945              1.0672565769583628
H              5.184564350113883              2.030117845886722              1.325739148755623
H              3.943858936985105              4.943385887170304              3.0505938817273335
H              4.677905900578561              4.700569278972487              2.87311214158774
H              3.399149555518603              1.5249681698493742              3.1843948196771477
H              2.9312032391666816              2.0670046270768454              3.506383887789383
H              3.2393826348620047              3.956280477727979              0.5680021717366414
H              2.88780799584801              4.619473638680614              0.5609599670622973
H              2.5201862434306563              1.2511995850615625              0.7897799882364627
H              2.0139978867211568              1.7732685995443978              0.7434793954739126
H              0.6547478744103249              -1.0803132106921003              -1.9692673258245657
H              0.26354524816294556              -0.3638203890226523              -1.938492983919191
H              4.9632751557876365              2.6446477216457436              1.1704293380138513
H              5.033287998622852              1.8848234031530033              1.1988805592675904
H              3.713750719958889              4.68627596333136              3.1681670040968255
H              4.40293525036236              4.499161242389248              3.03098953225344
H              3.0775618688365776              1.329338777591291              3.407413772386226
H              2.9823154845894346              2.1478486244676445              3.46180318093603
H              3.0446255543199925              3.933866949313814              0.6792996891445288
H              2.5527284842008355              4.1845158967023135              0.13885901805019324
H              2.681109192486717              1.4489471858187573              0.9332404422062303
H              2.003538811374014              1.7991483265024721              0.9330708490684225
H              0.8063435803758385              -0.9765439977241059              -1.9045737545772683
H              0.38975160085926897              -0.2489913144459826              -2.0438472620702344
H              5.023856299081374              2.6468722456272133              1.2894127498094865
H              5.166694215277353              1.8334748982076012              1.4417215328232835
H              3.9215880732702826              4.411425055612943              3.089608706191616
H              4.541164111207119              4.624189861600691              2.6973243098451034
H              3.0600031304583473              1.2902706353970257              3.205230859488194
H              3.1099232517193878              1.944292374617226              3.6276853977677574
H              2.6399704465786598              4.067890657539607              0.856469633349917
H              2.6466971004146265              4.316742422944833              0.17511531912139933
