72

H              2.054589359608548              1.4245406403361058              1.4840348654457185
H              1.7337346586071825              1.4937044501582308              0.8784059733328228
H              0.3429199682771551              -1.1080870601375794              -1.7422974066552042
H              -0.09446220948849735              -0.5084053969308445              -1.3908555082403837
H              4.572580787661172              2.339022762349758              0.5139016605715909
H              5.0184114749681505              2.108535711273353              1.0473579429409106
H              3.9579855312592707              4.26485519174168              2.7735895296500015
H              4.177084617535454              4.947234405783031              3.055540658014741
H              2.7991164656351897              2.743735552363895              3.4805985247343703
H              3.028125774675512              2.0804057705775727              3.9276555407281557
H              2.6035420368536246              4.546880372943098              0.47884857257664143
H              3.1600905116358855              4.086217946061497              0.6026787027184044
H              2.3017261146209504              1.544258747510008              0.903000911202599
H              1.5306562454036945              1.395735644252555              0.9480434028201319
H              0.2620468117519983              -1.0227680213962829              -2.0518257677536633
H              -0.09484450554378061              -0.6040880512356479              -1.5085113613766354
H              4.4614554180789305              2.00486575472726              0.6314424150600417
H              4.878309014346811              1.9859379550059373              1.2540589922521592
H              3.35496260276743              4.715018007939025              2.6833321145534015
H              4.018270818580566              4.745527895361041              3.1078373566616793
H              2.8531011301402884              2.6755754228274107              3.5642374505920063
H              2.995455804143739              1.8820054520467668              3.8088389166212675
H              2.588111066942517              4.294503576781954              0.3930579635037805
H              3.2461134507352445              4.05290429357935              0.2713333661652108
H              2.4477405796373826              1.6547394702665392              1.021466359655445
H              1.8346992213761362              1.4862564514827277              0.6434850521394594
H              0.7772209133105539              -1.03077180263304              -2.179009624202999
H              0.22460432985693338              -0.8662635832991993              -1.7424488874475148
H              4.853649898685792              1.9920674804503697              0.8918489224394832
H              4.920834692538088              2.3225417090604283              1.6170762180489402
H              3.592970942335342              4.7275053430673015              2.4793331164870747
H              4.107066296450977              4.740346029667717              2.945378284851556
H              2.8081084189356664              2.5196598344983494              3.3971057380321827
H              2.929661796032807              2.0658189753773177              3.9762437150004732
H              2.7696500838811478              4.286271990623953              0.6841368544294674
H              3.109299004216242              4.118720759803392              0.03952015203588387
H              2.344872013334718              1.4543111660313712              0.9482647726761471
H              1.6422704761677074              1.4267904201378838              0.7474241214262746
H              0.8968834682823726              -1.0477705985982457              -1.971718872063544
H              0.12485337435901288              -0.9134302560542412              -1.7320649267047425
H              4.881503621568433              2.5313516332001362              0.6959818710272613
H              4.907636134143515              2.164599587433341              1.3135662514313402
H              3.595449148762255              4.529903382017485              2.782160523369668
H              4.311424258744975              4.6856405274971396              2.805298183942818
H              3.066627762206897              2.460953263751854              3.342178993854814
H              2.9284473125977106              2.296295014825515              4.089652028764079
H              2.8061775218203957              4.290689352749707              0.7819627226491334
H              2.8468210252458617              4.072079606142654              0.01797100070901717
H              2.344241090974965              1.3758950286836307              0.9091683077248665
H              1.6768717862651417              1.5978966827093983              0.7718432604278509
H              0.6508057687214456              -1.3320238686207135              -1.942161406215279
H              0.020121875226786042              -1.026346912627538              -1.8086991571832591
H              4.717734331200187              2.4433289299165315              0.664919142930823
H              4.998586201173734              2.2878782757130045              1.2902084678125665
H              3.601031493538035              4.352435386177413              2.65155299484348
H              4.253517485778229              4.5274848431670796              3.036489157491602
H              2.812634423897069              2.274022152498183              3.72015101481809
H              2.792856652190545              1.8800681528075511              4.354711388426414
H              2.8902249507544906              4.311399968440308              0.703167065331654
H              2.973120901933001              3.905539215180118              0.08958020311786068
H              2.2855636155260592              1.1395971988401636              1.0535051274693594
H              1.5717051806402438              1.2307281625199846              1.0056293175229476
H              0.5763035078641066              -1.2504943546641112              -1.8460209772017462
H              0.004248878500881486              -0.7317249368570293              -1.6875964912236847
H              4.880258088134366              2.244761571321765              0.7810977154735538
H              5.0547774656225295              2.2396542058209827              1.4763512847108635
H              3.901866369438487              4.270734333324717              2.694649788787264
H              4.242185573861145              4.638980031561267              3.1733825020312176
H              2.576533397041045              2.2002010385043467              3.58108340013305
H              2.780908524961274              2.169770831761387              4.315477029747907
H              2.6739287366047484              4.265458907506238              0.6345841702858692
H              3.147655657798864              3.9365086507827947              0.2134333546972623
