72

H              0.6419366193731828              0.8767219278366856              -0.5051324284198642
H              1.3373960618071101              1.1660243299754849              -0.2600704984073274
H              -1.5149202378027398              -2.201803821626506              -2.389715532110541
H              -1.94081938854429              -2.3431868252337726              -1.8536985170184634
H              3.5973654312348913              0.958994933505045              1.1606343537558852
H              4.220226989304024              1.3558109692277194              1.3362286406448183
H              3.487860460429248              4.039993761842235              2.5374637858930704
H              3.7973940693361516              4.0068705339307265              3.215279818450906
H              1.363424755351717              1.9009655864400838              2.6469072212164777
H              1.915574000028532              2.296646268803082              2.338882163987029
H              2.5489462587548197              4.047609018692685              0.2787265247127663
H              1.8402287298621036              3.853737817161766              0.3363640254262466
H              0.712585723109327              0.9627269468565169              -0.5910705478734283
H              1.2402377741401933              1.2636733901912292              -0.12427384109619123
H              -1.5235875991551213              -1.977813337403813              -2.5085451710408213
H              -1.8673799829803317              -2.395607230815692              -1.8355174004186772
H              3.4606722841007658              1.0328841979454428              1.281023262965459
H              4.0989989956771415              1.2496094684847887              0.9212515896599216
H              3.66232363852097              4.490251497361791              2.4666043474563386
H              3.9627181422854467              4.049618458290251              2.9914995269717117
H              1.8054393531708097              1.9050101147030134              2.782305044623887
H              1.7869996002327635              2.3866263335943105              2.2226300629217297
H              2.3378497073865527              4.088915977998833              0.34278950501925953
H              1.5806563122975483              4.205475313633329              0.4825280551122173
H              0.787510875277274              1.2616347562393846              -0.48886108056052563
H              1.1692417402120727              0.6936497914524261              -0.45244723796912073
H              -1.509196145984468              -1.8052214497009473              -2.3104107416669817
H              -2.030199562178361              -2.3098555040101245              -2.0356235578750637
H              3.7999169982733707              0.9024639846184634              1.005938767857829
H              4.052119407649345              1.5843001030225616              1.1078803918045192
H              3.774252510335375              4.276525737272244              2.5341239123727055
H              4.108058714172559              4.338317645297921              3.188290227183045
H              1.5089957833910084              2.007761087803625              3.0112261631482258
H              1.6375773200204136              2.1662233820885164              2.351887776355456
H              2.462439957175652              3.996939690150506              0.18793226774060834
H              1.7919921125372036              4.233640313681841              0.3980547188725844
H              0.7602986246172349              0.7956449132451591              -0.10971506941909262
H              1.2392726752417165              0.46342472619353775              -0.5203553259229211
H              -1.2769539995344243              -2.0165090632243534              -2.4493998003545396
H              -1.683455127577686              -2.0437853918040125              -1.9054576338804554
H              4.287138538446175              0.935988582778666              1.0288671966627814
H              4.359426812267677              1.6220369836555186              0.9911643129798519
H              3.8226983106065804              3.9691173188079083              2.5558457480716834
H              3.999961965503926              4.348806858898093              3.1866631110569066
H              1.547503354467343              1.9959205278625374              2.9660455936921193
H              1.401240717042406              2.2470497838224843              2.2198623790979317
H              2.4957502866786805              4.408310747747374              -0.04051064820057258
H              2.0767454017136178              4.114565543074906              0.4883010989513423
H              0.6811682722890382              0.6898749397421184              0.05878842636362474
H              1.2857847796955997              0.9795864379163602              -0.2895225792695129
H              -1.0026604661106753              -1.8529025866724291              -2.200806941744774
H              -1.4906744956703288              -1.9227196883302282              -1.6843738252939116
H              3.6329823753245547              1.1226511570523372              1.0912992769818548
H              4.006804130303555              1.6976474565301856              0.8482303959821182
H              4.056756953945985              3.6734201365141894              2.4896609578026703
H              4.0458316893283754              4.126071118804617              3.200221572852348
H              1.6654694624889823              2.268614896535278              2.978622719240291
H              1.7980791777358198              2.017454969043929              2.326958907045982
H              2.609380983937322              4.026743058226294              -0.026826925750078254
H              2.061710207171278              3.8586067381987883              0.536491213603087
H              0.7935916095844956              0.7199673196922739              -0.154600640693257
H              1.322231215933582              1.203447101989739              -0.27614581554462525
H              -1.1672881629991265              -2.175410348831274              -2.017920393626813
H              -1.7106525555702223              -2.033300132713672              -1.6469717879048027
H              3.595121505832146              1.2746640193118133              1.1326297153851144
H              4.116659748639055              1.7117409469891003              1.1807992252241852
H              3.7394633662862753              3.8595087574123155              2.4889001545652225
H              4.247683524496736              3.9413426417503787              3.0178655492369124
H              1.4838446581446747              2.0766938389999816              2.8456399449392515
H              2.009633312677169              2.0390903563630958              2.2335818794523172
H              2.829094983500947              4.107354321150479              0.4441605805332583
H              2.1046642338770445              3.95516816470339              0.3175793649862987
