72

H              0.749046263275689              0.9747744189490822              -0.47872027068289313
H              1.5174259139000243              0.8730199620160954              -0.5053050390544066
H              -1.3505162977777467              -2.0900163766547304              -2.4232797674776467
H              -1.6806900623822132              -2.359513542089269              -1.8943667988087736
H              3.5082567312393804              1.0952337759277002              1.2031781450811334
H              4.244195537402397              1.3830241653422903              1.3102828063247478
H              3.7216584292036763              4.075267793766899              2.463985010769478
H              3.7252975979993446              3.985367465752806              3.2014691994417315
H              1.3416796617411342              2.031497080858222              2.7019071879196717
H              1.9675386210230528              2.249963448905823              2.4273880589849455
H              2.5129750685024606              4.019455933408607              0.2736068016939409
H              1.855504518645486              3.9640280860629895              0.5897229994164612
H              0.8290150102862764              0.8169389132024019              -0.6725901545682833
H              1.1778454198715915              1.2648418773810892              -0.16003928133275455
H              -1.5380877687911465              -1.844171969053942              -2.3762575179520304
H              -1.7392771977971506              -2.425914808182011              -1.8009920735118576
H              3.5551969211696175              1.014562334622794              1.2056579783841215
H              4.022619018954409              1.5186985745526986              1.0185318756649009
H              3.6148328425207055              4.375175197081065              2.4273250057112326
H              4.158269009164243              4.2125742618888316              2.9445689441803458
H              1.7688073735672178              2.031963286411474              2.986063279080702
H              1.6521349525376483              2.090080661990665              2.262680185493687
H              2.3749781339648224              4.166791143879717              0.6070333684793323
H              1.6936414471321284              4.130277561700594              0.4691545313374796
H              0.8866826682211446              1.153957680467665              -0.44058858975163384
H              1.3976157482102043              0.6704255125859416              -0.4812995782695266
H              -1.64036736683242              -1.776952064137714              -2.374098624120514
H              -2.1005801390682497              -2.2364932591090776              -1.8983154637872404
H              3.546377214190547              1.0179259406315044              1.0445707785415044
H              4.061183744994296              1.6009301944273118              0.9443506734074154
H              3.8187613245223733              4.364030985461349              2.5308794809805066
H              4.125773611566321              4.09629603116754              3.127854499416035
H              1.5937054619832887              1.926849631251672              2.815835824849675
H              1.8287580992569221              2.291952829530085              2.179721207950128
H              2.440776667139203              4.188910660059643              0.36340191396553845
H              1.8037966646282584              4.3335549252134244              0.6457832222531413
H              0.7129660574987273              0.9889461309972079              -0.0752913397317432
H              1.2731910432841653              0.7221354183186155              -0.43645492288024035
H              -1.286254219426736              -1.8910126365925009              -2.2500390365417355
H              -1.7341983400378742              -1.934393438118995              -1.7368807545628564
H              4.100325259609133              0.95848396392224              0.9628880023067988
H              4.146839742196157              1.648994233303288              1.2245653321782388
H              4.013283607605557              3.9165208567225536              2.5263308075051185
H              3.9160246176086995              4.177836603531619              3.24287107538187
H              1.26974630089858              1.9619094427748351              2.885744137725948
H              1.476747567423027              2.1886149538749744              2.2893848753508395
H              2.3322712576252056              4.38494833925703              0.06509826620869495
H              1.9313972108171427              3.9885832903362264              0.555227693745706
H              0.7361611885520722              0.7755909075750046              -0.18344495669855784
H              1.3669564142749342              0.9870255299937103              -0.10999761918992025
H              -1.1151287578019093              -1.825307053333114              -2.2664390528601364
H              -1.6829646625655088              -1.8842751564461995              -1.6982135665992992
H              3.825573335442369              1.1027872939807244              1.1525727362822027
H              4.174515092943346              1.7505822155294122              0.9112660831451966
H              3.992568969855649              3.9456675323797055              2.3886035431223487
H              4.02551577869793              4.236020177369582              3.1675193114327054
H              1.5317361359975339              2.237597954992299              2.9124957328807652
H              1.968744542835936              1.9424219123854727              2.3977151817377167
H              2.696187650846401              3.9298315884064188              0.0776716818025969
H              1.9526566346821927              3.8749196612608148              0.25823274238979405
H              0.8428615119844813              0.7146690385443656              -0.24188023283403662
H              1.211939027547723              1.2137805960984192              -0.5935170494656916
H              -1.2595759413881766              -2.166546479618894              -2.3068970258742527
H              -1.7376596118251766              -1.8479562298162007              -1.7936309829389008
H              3.6276554076420235              1.1930901239578509              0.9054571537467843
H              4.175132492665343              1.709554239903007              0.9484883931230024
H              3.587179331638264              4.030732463576891              2.439295507882826
H              3.9391065338831335              3.956690228879564              3.1099008743005156
H              1.6291736145488376              2.0370768498425758              2.987180170038838
H              1.8406491632502253              2.2324712825072126              2.1772158812156626
H              2.76895260164935              4.044714503152835              0.04782159969142307
H              2.0863931761847256              4.020707555159219              0.38346511429730257
