72

H              1.4066252464723323              0.7142521235340616              -0.5933744392398554
H              1.241701431779828              0.8785503175666687              0.13858145684546302
H              -1.2590009146083325              -2.5684133886785947              -2.0613312257928516
H              -1.9170050968416914              -2.8805807530082843              -2.189722256120192
H              4.017816574115925              1.3089374603881594              1.5426493906305554
H              4.706543476701804              1.332400454106811              1.2314862191158393
H              3.8491473314445623              3.6108229731609165              3.3396515864799534
H              4.28106812584174              4.088288936688526              2.9562786353968167
H              1.3735346046184707              1.8916101211309069              2.4419995446907454
H              1.1338068593750075              2.524337602060115              2.094597756506796
H              2.788490162662502              4.011068641025589              0.002914559028259865
H              2.2392166223326897              3.564326924256983              0.2310502639556437
H              1.2527879668259776              0.4826606270303229              -0.56215812411982
H              1.1860326835614108              1.0144539949210398              0.1219286494764619
H              -1.0958781689494184              -2.2561208227316176              -2.1657496267634526
H              -1.7009843305098582              -2.9064530657380083              -2.3033881028822023
H              3.7970739809510334              1.3340208307373418              1.4487502824940166
H              4.536369894471594              1.3761327432214605              1.0739306526318866
H              3.7819676834388387              3.468148002588727              3.2308254436778165
H              3.9900362603099655              4.119169459416524              2.9950894358637954
H              1.6482889791193194              2.1782131186889204              2.423696350365726
H              0.8037035140751407              2.447734963669743              2.437187680481354
H              2.7996798831499166              3.579203547878559              -0.1405979467889948
H              2.1868258299170913              3.6054919451172283              0.16149715768448517
H              0.7720880131977209              0.5527250523211911              -0.38059401246571906
H              1.261562593883136              0.8432344406282419              0.04943249839880086
H              -1.0041823948492237              -2.493572722949933              -2.170692032798215
H              -1.5876517011316411              -2.9003292786228707              -2.51970177083223
H              4.014371968702579              1.3875915092440856              1.7458638111449198
H              4.517058190044307              1.521981729892413              1.1971261824690298
H              3.725564123687748              3.749760397669451              3.218624130609492
H              4.219666181432192              4.08908129237345              2.805555363207398
H              1.7792357157708512              2.228570992124086              2.321799225468373
H              1.0877807791201621              2.3864605800025767              2.5265580580867346
H              2.949736800742102              3.305682894035674              -0.006856788615339953
H              2.3707453190285066              3.6571321184491223              0.2045372588751151
H              0.4974677486305514              0.565628552578568              -0.5055806304476285
H              0.9322193359656101              1.112701780876303              -0.19352609523458764
H              -0.8781997641562781              -2.6512465514842307              -2.3933933022433562
H              -1.5684468988167344              -2.802526425110238              -2.446407131161133
H              4.055265197962823              1.2467881275484713              1.5900685958971277
H              4.391324480958431              1.601359353847726              1.008322231379642
H              3.7087771264713654              3.697923516506768              3.3946336381995965
H              3.9923813179621246              3.9910612521033295              2.771861018479736
H              1.7761873919795634              2.3005366946131907              2.498979643483255
H              1.1186734362634874              2.461659112979764              2.169605718304788
H              2.765623313372624              3.735598456328884              -0.17545091433299764
H              2.5569028199234087              3.48212301384412              0.4977908860884106
H              1.0655253697305571              0.612609460089272              -0.3508922714168972
H              1.0284658631336963              1.3329587113019683              -0.08011596674174488
H              -0.7349133437723255              -2.6234664005114023              -2.103832753493382
H              -1.4777288731103104              -2.7906266985224106              -2.201256807950318
H              3.779754283027732              1.422661223779703              1.509478168665651
H              4.252643319459946              1.166497844154476              1.0489816616432752
H              4.027387440934348              3.619916131541472              3.427321561148919
H              4.467756339769145              3.808030088013714              2.7796983968507334
H              1.7951710536515804              2.2706189246551687              2.34084928948166
H              1.1059335220402067              2.4195144096464034              2.289386893696368
H              2.906176697061726              3.8941661426342074              0.33757220157178236
H              2.223229392907582              3.7450383249912265              0.5448761625722842
H              1.164175205615065              0.8841044553588323              -0.49079920165434315
H              1.137444452333746              1.0664579525815374              0.22797035642768682
H              -1.0549576385458803              -2.6256213751768365              -1.6527782747586197
H              -1.6260813513184451              -2.71831215837431              -2.067468030726524
H              3.8831420469685356              1.0366414258731484              1.5312249603636916
H              4.466269787439877              1.5147467764956608              1.31832863455164
H              4.228494536426953              3.693618469331056              3.5305946894646065
H              4.479594018408905              3.7630430397041703              2.8232435347052856
H              1.3097757673329622              1.9702772666474864              2.6149940474629907
H              0.7533713055407564              2.352521848346444              2.407972197631633
H              2.8302034742412236              3.937480189519678              0.3706762458941253
H              2.172591480110521              3.56551366939546              0.22296739283659517
