72

H              2.4124012115207276              1.5843637761903788              0.8095739012143589
H              1.7248113923866228              1.7135769562576235              0.5597567115724842
H              0.9818003973132706              -0.8073747415451176              -2.0917643656435914
H              0.8620460829376821              -0.04814169488297773              -2.009994874831751
H              5.330566927099915              2.567533783360127              1.383328895130355
H              4.9630374424722055              2.0142483796301076              1.0851547359742288
H              3.9933326381857253              4.7433371479907755              3.187364802332792
H              4.285826794741014              4.348168853680782              2.576435864863833
H              3.207691376657404              1.0297616966803587              3.7020230987037746
H              3.257473604535184              1.7279826446508235              3.336239219946936
H              2.809023823925837              3.9470402092046406              0.8042321482983231
H              2.8055260091950514              4.518807771242842              0.3176866760891917
H              2.2026279463405714              1.3949906806501553              1.0269617808290774
H              1.5068708896951661              1.7317449107428227              0.8529597218547653
H              0.7577077711550978              -0.6297415949732009              -1.6422672021004419
H              0.8524397019439746              -0.0479718520507154              -1.9573917732335384
H              5.439475001521205              2.6311682570651906              1.4388459392224957
H              4.939478667814362              2.0172052339167985              1.3038507166866407
H              4.248260304493724              4.658991082781681              3.2280502137917395
H              4.500003367702452              4.235840610579449              2.712742543121299
H              3.510995624719854              1.3016880222406204              3.6954018166630864
H              3.2646014401957024              1.795960313580805              3.1573952989168026
H              3.0374585552514213              3.90006453370644              0.4481188381410848
H              2.890310981301238              4.558754216942499              0.6007126215815334
H              2.049044079158719              1.3254412134870166              1.0400924271502723
H              1.8945089488250317              2.032332790310039              0.8823885563715731
H              0.5312022859276434              -0.8112206860280347              -1.604021721228186
H              0.5143630965883839              -0.03152037933859018              -1.8456893488472719
H              5.0725884526616145              2.677578329499              1.0619260323180921
H              5.022615439319603              1.8922063618328975              1.2448249487741827
H              3.9642761663311514              4.588601197753942              3.190915637533532
H              4.539388070373535              4.294360713159592              2.8888787924302815
H              3.55393022103189              1.2575482213202096              3.502084926501292
H              2.965892804927111              1.6930313932846568              3.3202316800057896
H              3.2404458524036714              3.8698961454562095              0.4847476960016111
H              2.91410807484908              4.504081302358891              0.5058403649445695
H              2.153501738731069              1.2736020136654236              1.1126408637218075
H              1.7399598229649242              1.8074466017258515              0.8313368003693452
H              0.6824484651342556              -0.8363243678140242              -1.5877456228118598
H              0.2842093960415305              -0.15655259818407496              -1.8647704302198764
H              5.18020543008538              2.4512500532171937              1.4676273595229599
H              5.216664512738844              1.7023797095732447              1.1685795184203616
H              3.96784227051807              4.756854726181681              3.360787432984364
H              4.305819447135243              4.427385317435177              2.841412666228856
H              3.0706623040484544              1.2296216864209963              3.235596629068975
H              3.0634433667409042              1.9395376942274216              3.498083800573143
H              3.0650894289842134              4.151788990064115              0.7711690036055917
H              2.777624083768471              4.613872105609695              0.24670849904201808
H              2.4879367466156026              1.472166669894857              0.8446324442943643
H              1.8088116752738634              1.7447791068426088              1.0106981204805674
H              0.7720506787373672              -0.6939281765533241              -1.8507006069700016
H              0.14979054488363355              -0.32700103797201496              -1.8284004233853486
H              5.335122815917677              2.4397571302689665              1.0375183087757571
H              5.2001025736063164              1.898422579930651              1.5773180179743889
H              3.8117305108698645              4.767215907082159              3.0559985787319404
H              4.456116476612825              4.742059310090152              2.758280433106457
H              3.4668329740528336              1.7091190586783374              3.017326354895427
H              2.8902160169883775              2.064825284418232              3.293300885050553
H              2.9470823760793117              4.204224704172336              0.6572867702338447
H              2.7769255218034146              4.741302276732593              0.15997593204046373
H              2.395141276357044              1.6390186855392572              0.8384199152975924
H              1.749694703778959              1.4973781523785303              0.491210847572694
H              0.5742189540960958              -0.7427421466090401              -2.229482225255454
H              0.3975521052975262              -0.05078958915910126              -2.0462930236716166
H              5.353697066529742              2.5768152379445506              1.2087024978619567
H              5.06540741951606              1.9060919014659383              1.1371223406394162
H              3.685858069527787              5.017828166156892              2.9653007021319104
H              4.243265538000039              4.584725025592332              2.8152428289937825
H              3.302662171981524              1.2747910411665426              2.9677548096946094
H              3.317201826892373              1.7974714773565372              3.503418559538691
H              2.7320315355626907              3.9538164247392693              0.5938685459122741
H              2.685874136793151              4.66340694671139              0.31537283571845726
