72

H              2.1107732661440353              1.5554524623066739              1.0697525319372891
H              1.8706504543964797              2.2263346065075775              0.9502597267662027
H              -0.3340290733852271              -1.187887629834672              -1.6301330700788763
H              -1.1171844051198156              -1.2478126933223994              -1.7107086367749262
H              4.735607959373868              2.215076632214702              1.17560648531411
H              5.055300057318876              2.9123466384714685              1.262144395968012
H              4.520002932215199              4.977732638446561              2.476733573521751
H              4.568534120352675              4.713312338344871              3.116137385821883
H              2.5387762606513107              1.9990196948821983              3.749462542682325
H              2.8263060720598956              2.4442725469545445              3.3456468351236577
H              3.0557297540911876              4.420938170031991              0.34686080888368154
H              2.8018494549528015              3.8523326206221356              0.7181425508152828
H              2.4828038354429656              1.5298377518287807              1.0234211000793612
H              1.7393675317085389              1.6144507310841707              0.8041405952048877
H              -0.550077382351979              -1.102682934231643              -1.934015514729934
H              -1.0500029478676614              -1.6063963731179949              -1.9346767383769348
H              4.897251788164997              2.178334524274379              1.220465844873296
H              5.04913103973619              2.828428334972211              0.9231763378413947
H              4.28961811835793              5.102263154273867              2.5373270468993954
H              3.994228857770065              4.556793275524328              3.0098308950638923
H              2.4768016888256508              2.120836974678997              4.013952375393924
H              2.629478521273177              2.2713116042382993              3.346539749932576
H              2.8020571877682316              4.143358383851211              -0.015638309226261547
H              2.861996575480828              3.876415051426944              0.6815517053075707
H              2.483850791261934              1.4471679551470509              1.050209837666692
H              1.867713940333839              1.6859624348479654              0.7466261607170958
H              -0.21717480590327384              -1.0172532384737931              -2.0888812799883545
H              -0.6905945176164867              -1.4581294529912845              -2.2162115328685332
H              4.914446557653475              2.2699495766398243              1.5323000240143365
H              5.289043013540887              2.787974683880982              1.2469557710385408
H              4.120417166493767              5.0811769023617765              2.438327916506589
H              4.185718706894764              4.562257613260279              2.911392097177703
H              2.3390468790895786              2.1818769627604127              3.7037543595742783
H              3.0109989221923437              2.15237523313562              3.396762948477552
H              2.574724641850791              4.23699354076783              0.44194542765008926
H              2.821876233098801              3.5561322929328694              0.47100801590305613
H              2.3824842698415196              1.3061654279074404              1.139677847712498
H              1.947223959642506              1.9093137363387171              1.0596909510335422
H              -0.00910585290735199              -1.0028853272876757              -1.8590656149158824
H              -0.5422875318715558              -1.3209150716962523              -2.0822481173733736
H              4.548301103375038              2.263794467279897              0.9933243904485805
H              4.953294050567093              2.8789898164131538              1.1202980517731194
H              4.015885136213256              4.674587389800861              2.516200428759364
H              4.509371815063074              4.711512309525584              3.1229864854046925
H              2.7583880806337855              2.2324136642807306              3.487339677291403
H              3.387187267818364              2.049607548479899              3.081716427818911
H              2.8212825217317667              4.5021645729378585              0.43687908885130944
H              2.580361382814495              3.878990826893556              0.28012008230625657
H              2.312226376404894              1.7950844797244665              0.8623372450338408
H              1.7159668767208522              2.0872940226726757              1.2473109310321358
H              -0.031079343208147404              -1.2622140713975696              -1.7515805430390097
H              -0.7329216971670787              -1.2114829934902944              -2.136652426353276
H              4.65440541814968              1.9582700475389303              1.0569991605619378
H              5.062981674329878              2.563024174426608              1.3272921483850597
H              4.041023158507019              4.917342297529559              2.6549583685002394
H              4.403917141684813              4.421019631090859              3.133492417767368
H              2.8222819724253667              1.9067463831354898              3.5837853216554607
H              3.1326370611655276              1.4762847397034073              3.105438651993703
H              2.9066783339898987              4.534665811451378              0.3187836469238675
H              2.9643567834787405              3.769699255952463              0.3820119567736211
H              2.2173239184909486              1.633880121203111              1.068520366684722
H              2.0203801577080047              2.282362246292338              0.8934830692145521
H              0.027441995591803856              -1.2748692145265395              -1.6713405837028803
H              -0.7462456511753179              -1.347286012579314              -1.8835993250517442
H              4.956578667986505              1.9910832308971322              1.5071807418237495
H              4.963356098035837              2.693208774298149              1.3514665853754477
H              4.618332854655296              4.75018766014875              2.6269587158893386
H              4.444126329984721              4.443422064647819              3.2155848714392676
H              2.473541855967749              2.1957295186643964              3.6899116011912647
H              2.92236272881705              1.7786204196501292              3.308571967775992
H              3.1534925328837513              4.510349636425095              0.3103869413745448
H              2.9553277443835904              3.7671664705650962              0.3676692252449183
