72

H              0.6963352676646766              0.6169738610182142              -0.4884272726296645
H              1.3772128554664824              0.9408782656299605              -0.45812543261736655
H              -1.4920208724230308              -1.5362605520619126              -2.50476798513496
H              -1.6031714519776645              -1.7630918627337546              -1.8462236400387473
H              4.158997612452932              1.2173665760293488              0.6974507702204652
H              4.119964222635677              1.94073045252869              0.8330062385625366
H              3.9659895135675067              4.3431133463544604              2.3882552920298745
H              3.9324075538952887              4.308592432801774              3.1324644716038814
H              1.6325223737013532              2.0646505400574116              3.066579589466219
H              1.3350575590417844              2.0718295900741825              2.365571602103889
H              2.4029038713462954              4.184469197783776              0.11132288885130821
H              1.8981971434162705              4.212219037409697              0.6338562744436607
H              0.8794266971793793              0.8936085813054231              -0.12212438227276966
H              1.4831239974889867              0.747453870665233              -0.5600792504927741
H              -1.196138691964439              -1.5952090187249393              -2.363794180122978
H              -1.4831964440769192              -1.7195350382959973              -1.6225085494885472
H              3.6229434725129015              1.328954685503662              0.8457841904751092
H              4.1031923677310225              1.9296365913886602              0.9480781444813022
H              4.27750473541334              4.0402665764582775              2.576411579607517
H              3.818496447808487              3.827155057542856              3.1013080369959862
H              1.3286342702616325              2.2285064390667975              2.766528149957576
H              1.9545000513579718              2.1118679375739156              2.4265495342149115
H              2.3502019536810295              4.106782704706333              0.16904428551317374
H              2.0752637790725994              4.0862257435200116              0.8385665501492453
H              1.057350028568203              0.7917156775967762              -0.5613561105055924
H              1.4372755320904902              1.3588049909981743              -0.23293692499568217
H              -1.2134095527597353              -1.7144355818201689              -2.1088041827782518
H              -1.5261145836379832              -1.8458396815313312              -1.4242915331994919
H              3.7236244198882797              1.3282397687547975              0.9692550257867734
H              4.096591041599407              1.8760255913535784              1.2400847494203409
H              4.022686530303023              3.972900798001829              2.3373067421703246
H              3.9794548345472616              3.933587941201957              3.0823862817488727
H              1.236467385711891              2.332251989434886              2.769953727866291
H              1.7837153795110772              1.7963276865566733              2.63460983545767
H              2.488563940789342              4.170562738853313              0.6575136092319804
H              1.9056203932126863              3.8044862786516824              0.4674254506126824
H              1.1470159472432282              0.794344707535522              -0.7073643157785109
H              1.5754986204740213              1.1495075044575844              -0.2791565914922422
H              -1.738985946058366              -1.8185623676871356              -2.41381963249615
H              -1.9704454247359713              -1.9807914173021755              -1.7695102242122467
H              3.553178479362153              1.2928434589436058              1.0861176959911827
H              4.223168637417876              1.5478743537837716              0.9786803157058658
H              3.6762974825965644              4.477577432013295              2.46352366141763
H              3.80462933864643              3.9336733722808415              2.915031355303783
H              1.3872257955669827              2.116374045089749              2.586801237652472
H              2.0661292865830396              2.1219989358168925              2.529672801301134
H              2.475982885697922              3.9819666812375694              0.6227179403903578
H              1.7540820270576292              4.103874427673993              0.46904429867821623
H              0.7715903820037365              1.0367728537687804              -0.45673170920089357
H              1.517671582712755              1.0210084930307444              -0.5313973351740569
H              -1.7155007548781493              -1.7997795496465732              -2.5514841237040162
H              -1.9211176431774932              -1.9111337862246724              -1.8498836694196212
H              3.411985249945519              1.1675391432326983              0.948251017766622
H              4.006020686355096              1.5550087267359787              1.0573405701387226
H              3.7821611343000794              4.64360164534696              2.5666457874707014
H              3.6192999427093144              3.9208072387953807              2.8924181194387595
H              1.4990787578839966              1.9269186311705957              2.7765868570425614
H              1.6381955982031031              2.388190810919525              2.2158711552985113
H              2.148638749612255              4.088341999296865              0.2980452755753998
H              1.5646347271243624              4.211136002270015              0.8333260441712081
H              1.0256970864212933              1.0609700576101617              -0.7188038474093672
H              1.4491936887630017              0.656520228132633              -0.3111185853717995
H              -1.5799800309542615              -1.5174798180801097              -2.4127083369629916
H              -1.770853322579597              -2.0435461399163146              -2.0122172630220927
H              3.7956462765080055              1.1340275938108573              1.0697042438941806
H              4.064946394692175              1.7787740067848536              1.1736924967454712
H              4.099080790429891              4.547591626425414              2.417447958349442
H              3.8207423013320403              4.352186679924316              3.0567977885058055
H              1.3017949448533277              2.1625246337449764              2.989684108789005
H              1.7886996141392326              2.0160943330069903              2.295208296501053
H              2.270270941511594              3.9566783329115047              0.37536128500429694
H              1.612900814060379              4.172202184666476              0.6875705697137025
