72

H              1.1364295771658162              0.8085229374756988              -0.5858405951396818
H              1.006537600681656              1.2262354589315747              -0.012018598721859857
H              -1.4592126573300994              -0.8809422792200083              -2.472565395628445
H              -1.0130195510776556              -1.3747296272215614              -1.9720109833131831
H              3.9713173708022858              1.7030018252064663              0.6356167505868192
H              4.124196292453383              2.2451651857582546              1.205980191770443
H              4.321325005960749              4.3764904463156205              3.008962760620108
H              3.6544775368429434              4.227933631308218              2.7845623930996877
H              1.2626801230872446              2.5119040272656714              2.8173388593410067
H              1.596667371494947              1.8714069548619654              2.700379578648567
H              1.849019311062975              3.745673525680244              0.2668453491504383
H              1.5637195836535887              3.8764033644415647              0.910694822630961
H              1.480623989388049              0.9272395727634981              -0.5782515548678778
H              0.9874379993753619              1.2173722495820567              -0.06539295586865924
H              -1.5268319630190117              -0.8932574099800508              -2.23851727636508
H              -1.1532405103974057              -1.4639731294908094              -1.830846898582251
H              4.279149505416391              1.6255487509276567              0.9499889128052935
H              4.364355856005391              2.3959720297993363              0.801714648026457
H              4.384443213542631              4.543112049602552              2.789095139334734
H              3.941636800318002              4.008151942666509              2.633661703743957
H              1.504841649814265              2.4643458505971148              2.853524425779357
H              1.3775025612245173              1.6828862290725601              2.8578352385634505
H              2.117243345342763              3.841369109004465              0.5790182692956608
H              1.5140617082117804              4.204267525851505              0.9087557505474175
H              1.4083454858719315              1.283701104853957              -0.46026930536478355
H              0.8516466481895902              1.1262010231654898              0.04045915545755687
H              -1.6913370022727579              -0.9320840348523559              -2.2740678889332653
H              -1.5847433531154649              -1.2990095681046288              -1.6629634086067677
H              3.713418527363881              1.6753713381805322              0.5994002747942275
H              4.183299752089873              2.1671356663352372              0.9768872634112588
H              4.050336243497312              4.2759710540767255              3.1040247242887617
H              3.841827173181616              3.7877497072222              2.5571830020308677
H              1.4062285246012618              2.5206592503932543              2.7180935108706525
H              1.5529407591080693              1.7484309729764864              2.6684124285034674
H              2.0133358331866433              3.946252604213761              0.5306744468673625
H              1.3895477078317868              4.053889692415613              0.9125756124287838
H              1.3974348352301924              1.2692877404537126              -0.36808815798690553
H              1.089330879636165              1.1643368674283896              0.23190642724639504
H              -1.6605039772563552              -1.1115032553949957              -2.3882547797810054
H              -1.5958261412480184              -1.2498057298910672              -1.5264093862037347
H              3.5694837584482344              1.7197647170285877              1.0070784992543473
H              4.295473946846758              1.9616266850347028              1.2105583609665527
H              3.979082368647838              4.388705650207355              3.038369919258906
H              3.9354767500988936              3.9062059029526384              2.4405751946387975
H              1.2136918788446938              2.295620874221163              2.4287591332812504
H              1.8346113242095607              1.8894268184061014              2.5875242821458313
H              1.9113465571144366              3.8710218441992317              0.5498802198468055
H              1.3710843430895587              4.0785162826362376              1.0011780330611586
H              1.3340397346314599              0.6896098496375066              -0.13468672716217453
H              1.2018662074483846              1.3986343498231544              -0.22302951680044472
H              -1.786252733021046              -1.1083562711518082              -2.517718220427222
H              -1.6132434330505994              -1.0854221302330016              -1.8072777860182154
H              3.9380276176686544              1.4606814085494693              0.8738081692900611
H              4.281753825735709              2.16086114387978              1.045002290832137
H              3.9606446449299137              4.82359150853648              2.793335224097512
H              3.5867573570002373              4.139877053213986              2.62656120501499
H              1.312009290576813              2.4161568380469514              2.6130512360066267
H              1.5881252926128446              1.793829238623727              2.664483596559116
H              1.9770463751517406              3.594411501689689              0.2876211873181317
H              1.3934447877441702              3.9850486083398047              0.73734517956639
H              0.9953647790675143              0.9034808451165534              -0.5023580817374954
H              1.1257192697761083              0.879532822401349              0.24446222202902523
H              -1.770106172099298              -1.12256471629797              -2.738381766010135
H              -1.4261524632027058              -1.1726946046534972              -2.1507187198850644
H              3.9934425101784137              1.582138751834778              0.7510993571228651
H              4.48966586558412              2.113040911356039              0.7304647991363269
H              3.9063244768153855              4.774141144227169              3.0685990889190844
H              3.685445393576505              4.330393963488761              2.500757799565305
H              1.4493744458156457              1.9608039843101552              2.3486239469869252
H              1.6670667493804379              2.4011807414958937              2.7726971330167367
H              1.8790605182660842              3.77987791284042              0.22379927786887024
H              1.5767631488577354              4.258941120703051              0.7141846351623238
