72

H              2.290775251027461              1.5094961952685584              1.259197012620552
H              1.6542834543281397              1.4939907373783199              0.9031216397586853
H              0.5606918836401177              -1.1106199577687326              -1.9230795325849561
H              0.34284334703424735              -0.4177614382044198              -1.582690566111717
H              4.6311855439376535              2.2788215737025346              0.7547334153575006
H              5.1164420529141665              1.8034993796814485              1.0070194239171426
H              3.575062651908829              4.331631186839728              2.7909452709681717
H              4.2687169221058205              4.63466210682545              2.9771000966339503
H              2.6806575601891467              2.2028152893639192              3.4180311874195497
H              3.206306138799735              2.1443854880078863              3.9967733720854004
H              2.4886916360962057              4.472462250082994              0.7490000563967407
H              2.9735517071793276              4.0974007493079565              0.3072798202715454
H              2.2981015992513174              1.6811634784887846              0.9505419969065425
H              1.5680637108284354              1.381853485093741              0.9918493950435079
H              0.6224107080701649              -0.981315069781373              -1.8552382574610384
H              0.19875050873827463              -0.47535479556563415              -1.4765134663561665
H              4.571714482726016              1.9817409618926847              0.7203558659812267
H              4.7285235445058325              1.9893347850695524              1.4275674120080672
H              3.590935728112093              4.439866681681925              2.8769511263843963
H              4.278752063552047              4.7023571079965985              3.0551758159507765
H              3.4199793409890353              2.5597887815723253              3.458528505693481
H              2.814246119798172              2.0654013647476446              3.8486671217340094
H              2.6289949085666136              4.288961700460575              0.40286923152520543
H              3.229144612388414              4.307557283456407              0.02907110093136427
H              2.1030409570535578              1.548985859225669              1.2459829717167819
H              1.7907197180183514              1.5736032933357766              0.5805497071429946
H              0.6228576420093204              -1.0961616104183072              -2.0441824738648697
H              0.26061899881863804              -0.6171958579016434              -1.662023710332662
H              4.714918266960101              2.313454940685658              0.7928632380701498
H              4.832580852765573              2.0231926351423635              1.5759453770964642
H              3.62950713039503              4.805092083095287              2.7050022065548327
H              4.288629741195691              4.804770305957398              3.0226895791412987
H              3.186268817543189              2.2759782647135736              3.4445931185372705
H              2.8715009120611303              1.723163551361617              3.878262363688668
H              2.9010779571077676              4.281381717660649              0.6876853711035924
H              3.2089695155117126              4.257762575637014              0.007992864448278278
H              2.2898293107796133              1.2115461101118157              0.7894613540674672
H              1.7867199875147328              1.7067249780669986              0.8324009228781923
H              0.9172688460105844              -1.1054759755465744              -1.8800543732912842
H              0.23990402209471753              -1.0360260718604355              -1.6445798012107957
H              4.858952343072206              2.3528743732384263              0.6796183177889138
H              4.951130757637479              2.218798448886805              1.3641670125458696
H              3.5944710718129134              4.538602533428511              2.8730663976224657
H              4.328355475880884              4.665116432604861              2.9649020741855563
H              2.8003093034294637              2.416730195500121              3.47172133236289
H              2.651949667030099              2.242730742506797              4.1939999980473335
H              3.0907493289554595              4.260273926440614              0.7786235636450572
H              2.9204745378456787              3.9178487511501934              0.10669396972024517
H              2.4728608279309983              1.576473561005683              0.8922438564111334
H              1.7588323115455673              1.483468745724412              0.7252601721589542
H              0.6086184861990989              -1.2136912486739668              -1.8085332242533556
H              -0.1144204429297182              -1.0597408825159742              -1.8580597980294726
H              4.7303805358057405              2.5332225611025776              0.7956223006334586
H              5.058666606807241              2.3552448916506585              1.4238498955625836
H              3.7811843787433714              4.370220407250904              2.559022512971083
H              4.265291004930988              4.752597344853052              3.0232690459987253
H              2.638219007026046              2.533614661155431              3.660773357296229
H              2.8770460092515866              2.254651889131309              4.335856560093976
H              2.696279653396533              4.057558952192906              0.8150336369233221
H              3.1452990710519417              3.9623604680066964              0.2083465514516612
H              2.5401017265681354              1.1869727327329498              1.097664297404231
H              1.9024188710361565              1.0921753129098175              0.7974839629015664
H              0.4672246999359744              -1.1397387654808389              -2.1224548924980233
H              -0.06107210884462046              -0.7151463133532274              -1.707077124083946
H              4.599157226961648              2.4105714727433085              0.611660818497404
H              4.841725014810461              2.2618567514935175              1.2410509548337367
H              3.753854574892371              4.265584880108318              2.6193567464785237
H              4.003339063288775              4.693140788702024              3.088024721514424
H              2.8211243631141643              2.3391289984184858              3.407615688691715
H              2.8597609557160926              2.1058982784391103              4.182978659119957
H              2.4562011009439786              4.114982960697761              0.6440021044506967
H              2.972938086767158              3.9294105521584077              0.12681942968367607
