72

H              0.9843459043757085              1.1081023102374215              -0.47339889700979143
H              1.5446158156638452              1.1705496633686248              0.08908194249611409
H              -1.6063063341911725              -1.402589653298459              -2.1676073463435492
H              -1.8644878940621334              -1.5737328446260057              -1.5908869087738864
H              3.3398897140459183              1.488624874226051              1.0269465575267713
H              3.9520717226713895              1.8430702358648006              1.1800197996731254
H              4.158929070669212              4.4440766733304935              2.684142622462621
H              3.86633434522661              3.774836423112502              2.723729372950323
H              1.338178669417387              2.3611687635758254              2.4978010249780005
H              1.9729710828466422              1.9822090616306076              2.383736648093342
H              2.167488981479356              3.849252820098052              0.5910658700576743
H              1.5096343640092003              4.016173157266726              0.8852925983878058
H              0.9873579055041262              0.8268263259188088              -0.6194829917168747
H              1.3138903373272326              1.283424153193683              -0.10174737334516461
H              -1.746171569514924              -1.5271248397711679              -2.5063405256450446
H              -1.8800253185815896              -1.5580046537403256              -1.7645111624132903
H              3.998651795884117              1.318999777583839              0.7886985268805036
H              4.335632432044429              1.85035188662431              1.1752496737212785
H              3.8823790197155295              4.689694017752497              2.4863010174047635
H              3.6407219898604164              4.138923967718584              2.917187342920307
H              1.0809685106072648              2.3318476031298774              2.660657017105955
H              1.707740666553901              1.8537203820985066              2.5074058433642095
H              2.2455614028841904              3.96327222764826              0.35203834295006625
H              1.5677607818675914              3.9845918469970405              0.48594378062110655
H              0.6272305332855916              0.6231172458370524              -0.32838256103714636
H              1.3047722871897323              0.9597767705274118              -0.21522160687849057
H              -1.6731795874637445              -1.4884697549432706              -2.8059003930921222
H              -1.5740174773998845              -1.550589246864042              -2.075692491899166
H              3.8831760788548455              1.2945449302306773              0.8188564143384924
H              4.342490534895491              1.8263008337284463              0.8341334325593772
H              3.9741200879644616              4.701887913856623              2.775046066934579
H              3.5011553684168835              4.216616390840946              2.8411108365543707
H              1.1494124667319643              2.2900467770061903              2.67325329758464
H              1.9135004874326944              2.107702477069285              2.5854466933664377
H              1.9473470211664548              3.838947338823148              0.017708063471024448
H              1.7940735283529208              4.1443184469190655              0.6689612366397338
H              0.6865284723610166              0.6271586816780991              -0.44562769329074586
H              1.1356563631184724              1.060537352289421              -0.020340818492476712
H              -1.328227131965049              -1.3194012118629803              -2.4191740515289375
H              -1.2312977564063499              -1.669516328286574              -1.8339457965734902
H              3.853748139600108              1.382582940797018              0.7982446973353883
H              3.9994308490161044              2.1586503829465813              0.9014120175279886
H              4.29961161561316              4.46011060101796              2.547733678235819
H              3.7979242356809317              4.14922071879657              2.9467906595376907
H              1.1440310447843054              2.3950048758568885              2.920058726672657
H              1.7183252247337044              1.9102753722642338              2.6760642202115728
H              2.19610380527223              3.991325658928986              0.30827813070406407
H              1.6709741615579845              4.152921085104841              0.8325036737008901
H              1.331716092179306              0.6708124449054521              -0.630502466352803
H              1.0010674728840416              0.729871978104722              0.03104311512486244
H              -1.5229084086493245              -1.2368984518690604              -2.2280219514926554
H              -1.4917269632196033              -1.9339090587986425              -1.819908389547116
H              3.954757506536709              1.4874339406020223              0.8725556857266743
H              4.2232050968889405              2.1111874210398933              1.1417495614972801
H              4.269085156894464              4.306192088404007              2.483309859864378
H              3.906721831291399              4.055786679836892              3.036683642381063
H              1.1879298719007083              2.395910979154588              2.8840045624913015
H              1.7044900789834674              1.8211592976704558              2.6004876415471707
H              2.4487837991527597              4.087400686958065              0.7183299226047063
H              1.6934263166092607              4.095646702991171              0.7572927665011217
H              0.8023388758495008              0.7985844738764744              -0.45626866365657215
H              1.2424874885409551              1.1069953179789442              0.10376386516357136
H              -1.6340456391098819              -1.458236807830677              -2.33259182989
H              -1.6223357671740881              -1.6016286291622825              -1.5336687204367978
H              3.5976348721660516              1.4713356856677833              0.8031638619794594
H              4.173274448138666              1.953134338563843              0.9961977405653786
H              4.1223265091719155              4.347391948161742              2.6642571855066213
H              3.829105517965307              3.6917957614618637              2.7910457505779926
H              1.4864636701177925              2.1168789681557207              2.9135605274235514
H              1.4550826863834285              2.1544014850171846              2.1627301234521337
H              2.193150882666664              4.168591479600642              0.5560620445455199
H              1.598924238964504              4.138426290597305              0.9981048436542821
