72

H              2.1134918497646495              1.5677946701246124              1.0848332850000286
H              1.8867567783100796              2.2242955951359353              0.9091234478824807
H              -0.33805099301639835              -1.1953120828161072              -1.630677945413302
H              -1.1390479517237706              -1.2668638861607182              -1.733400073877004
H              4.742732668173647              2.232052403185669              1.1931310027733335
H              5.0526739305364785              2.9149785600304985              1.2883655282377031
H              4.52833798736351              4.985133248468609              2.4574258706481515
H              4.567633730592315              4.694971937927315              3.1040322682872494
H              2.5546824928308256              1.9840074778139802              3.7610835152110007
H              2.8296078932962603              2.442339535183485              3.34338647753964
H              3.052919176419028              4.4294308923245325              0.32649176123940055
H              2.8015659218462887              3.8612935591350968              0.7178076357991243
H              2.487081787410001              1.482065237408376              1.0100020781347725
H              1.7479841787771673              1.605508791098095              0.8147346718757889
H              -0.5664496696079035              -1.1163447645478017              -1.946971607130617
H              -1.0380010059421785              -1.618604073435091              -1.944046389610506
H              4.910656967615934              2.1600066802804228              1.2266689621722304
H              5.071255330312011              2.854582151831748              0.9179262288520694
H              4.298077152115528              5.102649367219242              2.54674585995884
H              3.994792476885449              4.539067182914896              3.0105418840740032
H              2.467639186465708              2.0911845252769865              4.026884368231879
H              2.623133199193431              2.271396444527827              3.313256683006403
H              2.7987667612209015              4.139351607389564              -0.021459320709715877
H              2.8364937147162137              3.885012019399119              0.6697897271931063
H              2.487938144156842              1.438310989972652              1.0555544698308477
H              1.848533403531645              1.7019094016262875              0.7605627014850009
H              -0.22011599266664145              -1.0300016477540805              -2.062995929204358
H              -0.7024731558400529              -1.4635070623809094              -2.2285224612679966
H              4.927778745717918              2.2836690470163186              1.528204373149197
H              5.299126021614628              2.791408586123539              1.2310966323109536
H              4.144825370857134              5.065593994787889              2.444430172854702
H              4.194784214896209              4.561358160175401              2.927032818106893
H              2.3094115953349674              2.167995378806685              3.718773435065399
H              3.0204690907290312              2.177117054533314              3.403979566004337
H              2.568710578093036              4.249419256205895              0.45355299866227355
H              2.8323566202764643              3.568993927485653              0.4628229435203497
H              2.3947995905391517              1.299913592593007              1.1392363306380426
H              1.930291667218427              1.8851509447245014              1.0626363579357279
H              -0.020857789949399234              -0.9858259699073803              -1.8493910977792747
H              -0.5910077510178432              -1.3160312959235858              -2.0916933194279963
H              4.543218360952035              2.2705097680572033              0.9850520681359918
H              4.933257368720709              2.865053569984218              1.1261930726424558
H              4.030682892432416              4.681516232119342              2.517094657605352
H              4.506696271650664              4.720852301501496              3.123183572158143
H              2.7574343667986096              2.228435640299776              3.5005473251730774
H              3.397601863320011              2.041921301109759              3.0876631708059463
H              2.823242890807701              4.507612230387784              0.4416426234052102
H              2.581329246246048              3.8565620811091614              0.2751119116189724
H              2.323058906249813              1.8123771967519624              0.855640765006323
H              1.7124858912765302              2.0866183979907293              1.2570412809882305
H              -0.05277997178136095              -1.2504120426141418              -1.7774755092011667
H              -0.7152802863162548              -1.19926061125626              -2.117859370600941
H              4.637572019454707              1.9725006825423799              1.0662206279362128
H              5.059601333339381              2.544592098956135              1.3142379874648562
H              4.033681389804122              4.933356457234669              2.66282098318078
H              4.405194907146363              4.420031627591259              3.116994031647671
H              2.82959993979925              1.8824956738914145              3.5957998091405345
H              3.148202204513172              1.4731400873697278              3.055092010091643
H              2.9286325484266693              4.529022841997368              0.3374193643870553
H              2.955742311979493              3.7706950559474746              0.39669477825075244
H              2.1915287870885085              1.644350748002756              1.0532768299052644
H              2.0343632295129654              2.2919490568508483              0.8890005606650612
H              0.025595078967968563              -1.2664287990608059              -1.6559351989296665
H              -0.7254772616007461              -1.3545426157074278              -1.8807325204712166
H              4.955829682266589              1.9866321042995003              1.5440648181984493
H              4.949369272411516              2.696490732051539              1.3230329062522612
H              4.606245368925591              4.746611618685151              2.62652971059709
H              4.446223792433751              4.426874127958057              3.2149288633050235
H              2.4887549607108443              2.2421463020499925              3.676019252068341
H              2.9262770621091283              1.7753384397400875              3.301504195934613
H              3.162269176370817              4.492435450090886              0.315022682103595
H              2.9667422676056696              3.7885408799790103              0.3595309589841229
