72

H              2.5995125409393913              1.4899162607576166              0.584638568166603
H              1.8634405778787493              1.713635634262091              0.6847603127441226
H              -0.11104660497197572              -0.42529584443159296              -2.0895361527146012
H              0.20864026460391427              0.14612642924525626              -2.31812091218803
H              4.9062400455751485              2.2539581103464883              1.415552834986203
H              4.6764756410719786              2.5924229814524757              0.8346449789295084
H              4.3087359871115725              4.574900644924338              2.959654641499584
H              3.868250155604348              4.2334437326472125              3.4339377354755483
H              2.9753489053977606              1.6867097325242077              3.2970676570444937
H              3.1858710940877555              2.272304035607362              2.8271841159826803
H              3.206566786778848              4.515348057829621              0.0558694181903032
H              2.6665731054264667              4.290619186100785              0.49354047881320556
H              2.326503943381834              1.8262967733619981              0.4403521760373175
H              2.076020232314307              1.7817309506083348              1.144900805881911
H              -0.23217033879654259              -0.26749032929748945              -1.8234561553981015
H              0.05719320064983385              0.04852526732283453              -2.3693180740065825
H              5.4730494405581105              2.298427835189081              1.0960881112121579
H              4.96380125750609              2.471533713373037              0.5376221094858319
H              4.423780081135748              4.805635496693982              2.9247826930487104
H              4.204456703257204              4.128504674482951              3.030503634496014
H              2.9449857533816584              1.8022362818913846              3.434412852844641
H              3.2178367478148475              1.959470366380767              2.8165192844294267
H              3.1035312041352383              4.500005171990492              0.22828880073529384
H              2.569959654151822              4.552339114227467              0.708762460772001
H              2.4177876559425746              1.85563959990676              0.37947828008137185
H              1.9069048675410651              2.025380686142874              0.9363786546380017
H              -0.5210996625238363              -0.11327957184786297              -1.74178498077661
H              -0.13245320279593875              0.22870146248134224              -2.3063614982548426
H              5.079090616866511              2.1039117477872122              0.8523694405035315
H              4.746002333155419              2.4803883639155653              0.30841421633899435
H              4.1146070682168965              4.562863716609083              2.9976103413912587
H              4.099237539975482              3.9328901298642447              3.3249846773420617
H              2.8655581564246666              1.7788870314039207              3.4462290388498893
H              3.5770334201220564              1.9152428122934937              3.0655960938318088
H              2.7579182974983656              4.35434767814029              0.0073097684146195925
H              2.493233676149565              4.475030332005627              0.6634188495035565
H              2.2900154067597325              1.8435195382214025              0.4594481826504969
H              1.837716546466896              2.2298595853670835              0.81843535226134
H              -0.19400965443498114              -0.12451403656037138              -1.71457714800046
H              -0.04538935544343217              0.28216042548738596              -2.3780026882359406
H              4.944410752151631              2.2198939257773764              1.3743803629927849
H              4.532445554718201              2.3395138449858695              0.6459689779722887
H              4.276497348129943              4.498165846717406              3.0872876761234957
H              3.9733914258365544              3.8583836179726028              3.0057336583974155
H              3.2894925790509033              1.1600996547751299              3.379263352414491
H              3.170828044845798              1.8810213996226381              3.396346162343075
H              2.8450621504618514              4.270280699932797              0.13275003011026373
H              2.605201255866831              4.768256048378769              0.6737096275145124
H              2.128335037289997              2.000492034605955              0.42153593881514795
H              1.7878605219377266              1.7360480285912019              1.0380529851976863
H              0.02909000593839487              -0.03618082973813348              -1.7938034405819503
H              0.13802888595406873              0.5521507306964902              -2.1392982427733385
H              5.122222556016744              2.3479047384835687              1.0219229575935667
H              4.425571306625822              2.4170661943929956              0.768328053561804
H              4.261166837460623              4.658694924585529              3.0246419441996713
H              4.004521159366989              4.034098369098878              2.9024475275934587
H              3.274065947784683              1.3718948084476352              3.238683242083376
H              3.3863702612791453              2.0822993796730853              3.198912510218426
H              2.9985114321950532              4.274238129684622              0.11009075727187698
H              2.824546073319284              4.583764783726068              0.7752621787520142
H              2.2636736873618664              2.050747956889914              0.5070656960174312
H              1.5316331579567088              1.9293149773114486              0.7157313926063478
H              -0.22602244328565077              -0.2548040338208483              -2.116317706948323
H              0.22425234089291418              0.386121121240285              -2.15630227371444
H              5.149547125124687              2.452236507936696              1.131116862861903
H              4.729016107213668              2.3855805200626428              0.5130594462470703
H              4.118371869935769              4.7767547157236985              2.842654155817389
H              4.034710877535019              4.179906244396822              3.290020328283346
H              3.255791883217275              1.5518336933680392              3.1439793926461457
H              3.451683583303581              2.187657295436165              3.058671837839626
H              3.2129643670910557              4.4008531053033515              0.07654241275518078
H              2.809230124179078              4.5954917768795385              0.6755853753167985
