72

H              2.5717575381786775              1.4634825322266543              0.6266267326357111
H              1.8453349572560849              1.6788053833168222              0.6690723598402767
H              -0.0828796941146893              -0.45513358970195444              -2.0465000914276645
H              0.2905791196521223              0.21682596859035966              -2.355758684632217
H              4.9165234713244095              2.2443114511693514              1.3994541246049812
H              4.712091592419831              2.6211915563562282              0.8259551222840226
H              4.378126830886023              4.580363572043081              2.94998510505862
H              3.849617826355133              4.233263291402259              3.414486948529637
H              3.026702958078688              1.635897445361767              3.3106663498842552
H              3.1919135958361635              2.2775598180753107              2.830392482664751
H              3.1870829733198986              4.551604890578966              0.05162416188013686
H              2.6565221103643295              4.294050053712906              0.5740272841755946
H              2.3202066556311642              1.8151589484777526              0.44606488749349976
H              2.09575099065988              1.7916996537398222              1.2192474565387357
H              -0.20050515529287566              -0.2603762174419872              -1.812850769902466
H              0.08932709250823219              0.03738994633996327              -2.339061150200927
H              5.481206912854713              2.310991032453385              1.0755320869024052
H              4.988081399382375              2.4840196503673964              0.5870465736750745
H              4.46713274412241              4.772481641368579              2.9281764730722486
H              4.179067206610613              4.098396022623436              3.0392888873741226
H              2.991597639582281              1.7980518853980358              3.433303459343853
H              3.2065395954292497              2.0227012598976923              2.7580684929614723
H              3.1424816651464416              4.476367024581834              0.2342353387270005
H              2.587562574094208              4.545590000569147              0.6889187533209544
H              2.408069018642248              1.849162161656993              0.4282332779005449
H              1.9194548984573645              2.026888113154629              0.9232592355318255
H              -0.49853728703782063              -0.09397593521669614              -1.765078048250959
H              -0.13743124597990014              0.20370988729614042              -2.27582258113205
H              5.091874593398562              2.142123144612157              0.8814568902672593
H              4.7849084458692985              2.443578264726365              0.3102857152157492
H              4.1082013278168805              4.528621461636097              3.0024952907097266
H              4.101301161370101              3.899900358883278              3.3437646005184836
H              2.88639599087156              1.805044111879472              3.4091869516567934
H              3.5634622411442587              1.8970114520178656              3.085322444083271
H              2.7883213835898077              4.322612962227802              0.005924287828268091
H              2.5076340159842645              4.432844436620894              0.6711009645179754
H              2.2854059525464523              1.836756235034991              0.49273461158049353
H              1.8282921075812388              2.263258942555087              0.8187240701354114
H              -0.1659877945457486              -0.15151981644191773              -1.6627729566723735
H              -0.03966798501637332              0.29474062542678425              -2.3382138530479657
H              4.940200374843976              2.218722273419637              1.3527635853981035
H              4.560024561381063              2.3116398880003857              0.6283869962718702
H              4.2547804035051495              4.476933798143966              3.113124302600076
H              4.013146902484518              3.848764037589063              2.9815174824139263
H              3.289342870362072              1.1600022896909261              3.432405762296634
H              3.1660569007410486              1.911360418981267              3.388499171906567
H              2.8125829648175054              4.293306427542502              0.13528981863622314
H              2.6458347874021326              4.756294115020908              0.7029946106731639
H              2.131385971427986              1.9737053268049651              0.43735845509724924
H              1.7438229377837504              1.7647291641778264              1.0155812150962789
H              -0.0031298648869129315              -0.06273855665241515              -1.7995920508016923
H              0.09934030638757854              0.5292754622653737              -2.1463629911763804
H              5.102658925964853              2.3376039468568215              1.0497130050858445
H              4.479193439227281              2.4012273873591212              0.8419956028051137
H              4.22648174432747              4.707432620773567              3.0339667387976705
H              4.0044898161985305              4.041586431175349              2.8963718634922127
H              3.25629764500802              1.3910463049125887              3.195456364872766
H              3.4240799314486225              2.1279965974294752              3.1920853830275138
H              3.009535785617671              4.262903010593568              0.14016845034088254
H              2.8168698635948735              4.653719244721448              0.7211915857361249
H              2.264567562045397              2.083732284182186              0.4510273586113638
H              1.5781089184165868              1.8962210056573734              0.6876597489285826
H              -0.17880147339302382              -0.2529338102707887              -2.184839425394591
H              0.18885593808199608              0.36914856486711517              -2.185334552199035
H              5.183997132942463              2.492011723049509              1.1317588759989041
H              4.6974635703748016              2.364854354747293              0.5442344776627637
H              4.074667041146221              4.815113805347328              2.850726403800532
H              4.036816415525208              4.196753290472503              3.219911547226877
H              3.236345227907404              1.5380642451690612              3.1618985168761427
H              3.4547423754379616              2.152969878786255              3.0336526291682384
H              3.246154757480493              4.354788877242721              0.10552377057054571
H              2.773835736979959              4.613666003782048              0.665903258099498
