72

H              2.199921900019091              1.3473455655624873              1.079337299723449
H              1.529558472852257              1.7346504560457845              0.7795349352991535
H              0.4048028810628021              -0.7501719467889901              -1.7501737956766585
H              0.24211381366145168              0.05920243535473161              -1.9777862535036552
H              5.719445694572773              2.6298598843566903              1.2999340533689256
H              5.27135195070847              1.9983158181307332              1.1198465745774009
H              4.022562564229944              5.0051783636434735              3.0466273320660058
H              4.383458997364603              4.338183192402879              2.8529930250069335
H              3.1535735915456558              1.479648937168237              3.1036426499645664
H              3.3688711763430974              2.2289473519848797              2.998830470412045
H              3.303359774923944              4.180826370314818              0.33889367058109515
H              2.9708662000790014              4.651413910140494              0.8228177443383139
H              2.4520039267621465              1.396830155918532              0.7563428517405433
H              1.9133444568537734              1.9305407347037897              0.6846735097626367
H              0.29756670187187567              -0.8274106219896007              -2.0281182483668503
H              0.13029497069528007              -0.16918158500027827              -2.115882593225503
H              5.404210478461906              2.5553111464701255              1.275238479401033
H              5.258742029442626              1.9519324850286077              0.975514047000158
H              3.7417828366044543              4.763586413593974              3.1122669301451316
H              4.278457544440089              4.3210464255511125              2.8171163253479614
H              3.024082338734968              1.3847449377980077              3.2348793730074124
H              3.167721189288175              2.0818388823548184              3.180147638478123
H              3.1313908364725123              4.1451487857456915              0.7010253486253902
H              2.6445967934526715              4.514606099737032              0.33771975886457783
H              2.449016156464165              1.4515470517568314              0.7737366610222359
H              1.7304999070945588              1.631373434440782              0.8890230941012617
H              0.4916746430162118              -0.6203095771157318              -1.8655178782353754
H              0.28396426882742665              -0.009185388239198183              -2.300701139994097
H              5.627699978872277              2.492311655448929              1.565050400901803
H              5.164770088074797              2.0076186639698914              1.1302309983132237
H              4.063473513440172              4.620712382505988              3.151475238470149
H              4.2002990416822              4.275155230375661              2.5539708095295808
H              3.111149451038233              1.2878854696072546              3.2924061138666785
H              3.313717075806872              1.966075258939495              3.182764699708106
H              2.8107618023575514              4.177317005068173              0.8283989709572753
H              2.5773974268579964              4.662155736533676              0.3870799363277373
H              2.244874829747216              1.7390485517539616              0.645624613083446
H              1.6395332464522554              1.9021348555052044              0.9663198761018335
H              0.5456640329296791              -0.47523263995080156              -1.7420269774008632
H              0.4707425259441773              0.2862175521461379              -2.0914115280290217
H              5.554673389761453              2.566759684089206              1.0598202780954957
H              4.986731102405236              2.057395570764054              0.9629576092396531
H              3.993012997944944              4.492807581846628              3.0750162380048724
H              4.279420885708084              4.204543893691688              2.4856923743702968
H              3.781874779572849              1.3913924400792494              3.3481964717054264
H              3.192413164390391              1.7163527250101847              3.2318473421285288
H              2.783687459209805              4.011544784532869              0.575818164927859
H              2.8237711482831407              4.721478186257883              0.6419448139898064
H              1.971394843297627              1.5331372131462857              0.9167483507451626
H              1.4141432986427869              1.8914456752261153              0.5240101528188531
H              0.4639470296671447              -0.4476285274967904              -1.8235346397238166
H              0.7132581388921865              0.22260449290393577              -2.006713805699256
H              5.319877140791165              2.375806691093984              1.5298240080796037
H              4.970564555204934              2.0995518250895326              0.941940148284974
H              4.182193617955806              4.73403813569153              3.1349116615446184
H              3.936021297401634              4.092056067279429              2.876670271126434
H              3.4621153140619776              0.9502739818487718              3.3478013477009347
H              3.459156545704135              1.6311447112435502              3.447371423054291
H              3.0145635784285982              3.9788898689350765              0.5278090224107344
H              2.949990222488374              4.678681837322228              0.5797522966141099
H              2.1241210766903507              1.3493695650804685              0.851570458254716
H              1.5903550283234535              1.7914953226027506              0.9628387793133266
H              0.8272324708597361              -0.5958902622685556              -1.7571959258003909
H              0.5998674817413384              0.04068996414391462              -1.8759622591558294
H              5.558576126001825              2.5328273962456014              1.4676982881236194
H              4.970241729941543              2.063251733317188              1.4546124370746025
H              4.29638178213101              4.795027172703541              3.1839626874553675
H              4.242731519657644              4.2312889245138585              2.707026307473758
H              3.240818361245829              1.3019277081542067              3.472514620193539
H              3.2240806437771785              1.7898467761474295              3.0682900649370204
H              3.4419492775570464              4.0583111234751925              0.5399194525430997
H              3.077114340864209              4.713437051431015              0.5938162447000364
