72

H              2.592023002691233              1.5569906637483477              0.6498959724650619
H              1.9449120225858083              1.8608598689349796              0.7078130791627927
H              -1.57959651371717              -1.4289864200686044              -1.969600844902892
H              -1.1711017612422345              -1.6086837843438153              -2.62664794510376
H              5.083720920388228              2.1821778866422012              1.1309080376182512
H              4.898966734305119              2.392385619573218              0.4933526539618011
H              4.2555321423967065              4.758481292101066              3.0011377257688276
H              4.617098893412188              4.043220127281906              3.0456278330108963
H              3.5813351676606575              1.5897608385960613              3.511974326209476
H              3.047196456127642              2.196316093589385              3.4015674245470304
H              3.126092331794842              4.253430011096185              0.8670803891849885
H              2.5078321409464355              4.397422852055432              0.4733693321488869
H              2.72731180162036              1.7973433353764494              0.6830123480286224
H              2.0518860574891535              1.8349221047743356              0.9515542038569472
H              -1.5151505329315733              -1.5385329144181232              -2.021599075050477
H              -1.2129454931789814              -1.734890128618812              -2.679801420833612
H              4.909864460020097              2.376939001933192              1.180295098734018
H              4.96615483262062              2.513408224756302              0.46153663965106334
H              4.553023861046752              4.53764723490327              3.21403250109154
H              4.5770608094268495              3.884484565564              2.901680290047506
H              3.419199266423247              1.4533208357288248              3.2498260942308637
H              2.947223454680978              2.034533439480942              3.313224888841343
H              3.1571805220007563              4.449217620440665              0.7482589062308094
H              2.470907809063551              4.3402702564501725              0.5599823476501892
H              2.426753762416425              1.748861637842673              0.691434491559584
H              1.814798348515579              2.032487881541133              1.0531239442373177
H              -1.6630425176950183              -1.4492724203679535              -1.8220932137094301
H              -1.2701168152505187              -1.4785223898524535              -2.4317369342661603
H              5.023514298773442              2.408515298401905              1.108576232697827
H              4.730109474099919              2.3691170031411257              0.452334633811012
H              4.636428218780396              4.5570965448678535              2.9581951748696764
H              4.784916596627712              3.8840254324170553              3.2233728931519114
H              3.007670878810388              1.7083247557216803              3.6838899510214653
H              3.071849352484872              2.34430478601897              3.366538386305471
H              2.936245246959126              4.475312430523201              1.0033782759668124
H              2.851266799845341              4.347159506393648              0.27374866939942855
H              2.402463699667953              1.8065935261742936              0.6220696959795788
H              1.7525370709170855              1.847347421122796              0.9154493679112302
H              -1.8054509900431037              -1.2604474141254691              -1.7660947367082336
H              -1.6047784428474274              -1.2559043824944887              -2.473988034273544
H              4.9651010610357265              2.2862961868291825              1.1664983692094342
H              4.804123929235385              2.529555097231156              0.5257601119033904
H              4.61554185511257              4.694063880610874              2.667433899721424
H              4.810302302259075              4.146455048688001              3.1048071843115035
H              3.474899989663633              1.70650541025002              3.5279794400898985
H              3.0734744946899117              2.171554811153307              3.899952613617878
H              2.756823824372367              4.56236483025429              0.9665113936298706
H              2.948896535703892              4.491459751793279              0.28322592152870046
H              2.283518716073252              1.5081110471223087              0.4562460277219136
H              1.8134659803176407              1.5195353286215723              0.9739741208692865
H              -1.5223991145792761              -1.0919465142677853              -1.8184918699796346
H              -1.374959490076084              -1.319233677023584              -2.532142815577389
H              5.015993144994587              2.4783782283969993              1.2041130835064278
H              4.779932087695237              2.404987227988366              0.5704521424932385
H              4.348259500515844              4.806678733105988              2.9832803090407145
H              4.6389746015623885              4.138824363590187              2.8475697421807777
H              3.661686213017336              2.0033121765271695              3.6168937472886653
H              2.9792209521623296              1.821305356406838              3.309306569876185
H              2.950617684600429              4.288953153877579              0.9881686966978018
H              2.763564002512997              4.431368043478787              0.2792553952167654
H              2.347785968968117              1.3582122529151033              0.9305449506795299
H              1.9080221547841683              1.868200755330066              0.5844831784689565
H              -1.3371889399003545              -1.334543972397019              -1.8362679995576912
H              -1.0163297345528293              -1.5046644453401647              -2.501233994365736
H              5.010773391554346              2.487440518704431              1.1027569694308443
H              4.915914534951118              2.241623783882826              0.3910873536987048
H              4.275466946515229              4.7454982065329565              3.1481901579412686
H              4.623660624464701              4.110201285881088              3.014828020973719
H              3.5140818632143485              1.8596195249622733              3.595431959603511
H              3.0422295152342387              2.3650555428413855              3.427028046304253
H              3.1152551377022744              4.544082633105707              0.974065359377431
H              2.861840294484649              4.634234591870964              0.25134336654235157
