72

H              0.8649587758324543              0.9116360947575816              -0.4118386153482782
H              1.4948172271336808              0.7447536089443063              -0.5577091380653274
H              -1.1992633220196358              -1.7327540025855157              -2.461847407135716
H              -1.4659685833305673              -2.1803633145080803              -1.8239562434403422
H              3.531442018728043              1.2626268050503393              1.1326864961356826
H              4.1225881833738836              1.7134555423799573              0.8292316216164237
H              3.9611842950835143              4.303738254018479              2.3318358560934636
H              4.00588961014008              4.112986318606365              3.0540587696156156
H              1.574925362707262              2.2139344635177354              3.0694199926688213
H              1.9353532675921366              2.073088317246469              2.3524802874426545
H              2.487108564186267              4.01800019447787              0.31557155815296345
H              1.941397160759203              4.260442101351644              0.6920150343137348
H              0.8301482023961073              0.6766261930183527              -0.6697808441062981
H              1.4656044623658566              0.9270908263834944              -0.3624847177267846
H              -1.43383740305524              -1.7137820455628148              -2.2805177967313615
H              -1.7076257538092425              -2.290987249889953              -1.7466553429008673
H              3.7983853572378483              1.1226616258928566              0.9137952302008467
H              3.989010418086428              1.8243076413382457              1.2532166074621838
H              3.7755723773346515              3.980163354686209              2.475837422973875
H              4.100660168719673              4.211385801829768              3.121444768093501
H              1.3895736362892965              2.1443228120798863              3.027175968195182
H              1.6168948309790308              1.9213717791066718              2.3796425611851033
H              2.6248789650028335              4.286943619652538              0.5670233154520903
H              1.881627354288511              4.02030931561309              0.638975886550639
H              0.8521121327070897              0.8211271236719799              -0.28059687676505396
H              1.5672731413125218              0.8914591442417701              -0.26286279778929655
H              -1.5363041250351888              -1.852670601727178              -2.3277621042974217
H              -1.7656915661456205              -2.0500577619315536              -1.6179910670431585
H              3.510239082809206              1.1910388353353585              1.189286342227884
H              4.131685518603383              1.5918815450022918              0.9751710774617609
H              3.941706262759008              4.210557496705396              2.3950181305669105
H              4.024437376489188              3.856091297638237              3.0924778961973467
H              1.5416510308940632              1.9531372023123614              2.65545197564521
H              1.9022357427984693              2.2433130005413746              2.1498966419650967
H              2.4093366402257357              4.419198342517383              0.5735098781993264
H              1.7741038323239327              4.1156109267347265              0.8142405843807538
H              0.771290314044981              1.2110815331650489              -0.29169430351250025
H              1.4993180394320798              1.2286149173859624              -0.33275250986671717
H              -1.416541285286029              -1.7053473436185473              -2.0771136851019008
H              -1.9777491278407686              -1.8596911771122775              -1.5633361381835156
H              3.4117222394334106              1.1592724374433856              0.9835880044004444
H              3.8302398570350746              1.695120326534164              1.1888827199701548
H              3.9939767781284248              4.162850094206372              2.40937951434637
H              4.027238293427406              3.912442249042614              3.1405152418276856
H              1.3288165709825213              2.129200649167003              2.760046267280389
H              1.9908750683156906              2.059034985514512              2.299600962104516
H              2.385179069050917              4.0418581920883625              0.4009924342035646
H              1.6930087888857872              3.933865285633461              0.5448054023928677
H              0.8888988354143308              1.0581024847806877              -0.6451570386703617
H              1.5885190097519946              0.9258478275285301              -0.3822724702893241
H              -1.5294674234985202              -1.9711283986633028              -2.374234285338886
H              -2.0002620950471903              -1.8911601473330446              -1.8751313993171599
H              3.9721266002827726              1.0565966578739305              1.0034677898545517
H              4.400721534461069              1.6821764526562404              1.2006692929678355
H              3.7449761539935733              4.386221381060202              2.397651622851018
H              3.822827456790458              4.149924667029298              3.1375439679848456
H              1.279128332339727              1.946362601286936              2.7005415395793313
H              1.9071327765091393              2.191832329482203              2.374806733824295
H              2.5955284465333754              4.045314397622643              0.19521702566805377
H              1.8527840103595907              4.0627435226381525              0.23449604557655304
H              0.7616442688192878              0.7302675115759858              -0.3593045185707581
H              1.2722159197947616              1.090759991447254              -0.7523085557864863
H              -1.4076004016806205              -1.909603498877471              -2.64655544477163
H              -1.6134873663894993              -1.8750638866826452              -2.025881466846383
H              3.8486106092974732              0.9913667143874166              0.8825510645986155
H              4.228347237579563              1.574154036452128              0.866988843373032
H              3.7278945586908203              4.264332801608949              2.4576305213712395
H              3.4976441228235533              4.219120702809244              3.205103834024476
H              1.5671894090884024              2.058357198302111              3.045997644874745
H              1.5701997043398732              2.275550441423379              2.3581547299834296
H              2.2700873695799504              3.9357574554515247              -0.22576017832396036
H              1.9933399615479115              4.005617573425177              0.43219178212454895
