72

H              1.4078832235517436              0.9716579453092035              -0.6723845331436172
H              1.3002906800725182              1.2688074025129288              0.004626636948436532
H              -1.553361529111131              -0.5711322654781409              -2.3734020116973604
H              -1.1651321374511774              -1.088827100519111              -1.946100278091406
H              3.914644645048783              1.7343077392106907              0.5806011133154171
H              4.006358710933188              2.444727024119589              0.9348527761892598
H              4.374136083213832              4.413859436373859              3.075018080309006
H              3.8616709261048636              4.318866565986871              2.4981237885657834
H              1.7193471637723117              2.481363098697821              2.5467987478910614
H              1.7353017005476              1.779279404665696              2.647425603657065
H              1.7280576011264481              3.59554528310718              0.37864940411339204
H              1.6447977868089667              4.129877270285557              0.9050659593807926
H              1.5351685915594526              1.1641277308856375              -0.46400928911942035
H              0.8739710733152269              1.3325180990306487              -0.20852225577282035
H              -1.446197019635189              -0.8125463770462779              -2.3291991501635483
H              -1.1396665790840679              -1.1497426869881133              -1.7407384524164389
H              4.317299768621594              1.7086261039401214              0.5321734568492965
H              4.483501494251767              2.3432363428360947              0.9780558406247523
H              4.314365684906014              4.265669243630311              3.0839332966005855
H              3.719810937826037              3.9483562982381994              2.7658458339880685
H              1.4416450990170742              2.5558083905233264              2.59727771935916
H              1.4708299487430778              1.7337988335144086              2.659659800503448
H              2.0924297919898445              3.956286373175291              0.2707007971132823
H              1.526945231662875              3.9417652551000533              0.7687526568983984
H              1.709022773502021              1.1594539883730302              -0.564152367159698
H              1.0913783237065666              1.2998494263695795              -0.04028197604227467
H              -1.4892445179135896              -0.9705761478939404              -2.388458247994029
H              -1.142892107677546              -1.11773054194401              -1.6872797353693345
H              3.9623872526359527              1.5756431068078338              0.7788737178964444
H              4.550337059928132              2.128411402308456              0.9477189398642822
H              4.122535286440358              4.214927658379581              3.261916531515468
H              3.780472652615812              3.979726318007351              2.5871028432521435
H              1.3537693478004238              2.494905247297494              2.730174074194633
H              1.6254726982666527              1.7504444314477126              2.939988524409271
H              1.8671488479731189              3.706923060389206              0.19659113091595418
H              1.4820065836825609              3.878065326191036              0.8074851549496329
H              1.6805761084643958              1.1941366322516205              -0.29906078347686177
H              1.013982274832843              1.1627624549326194              0.07494868575073566
H              -1.6378912826708645              -1.0545915364526766              -2.366273804596748
H              -1.4938936564517151              -1.1290870801774386              -1.579985637327918
H              3.8040514203680122              1.5991842709495483              0.8624042901614232
H              4.261787611682436              2.1258934589829384              0.6995452677317029
H              3.8138507469486487              4.6232046187658815              2.872480397468638
H              4.012309015362486              4.017318300177962              2.483114591146993
H              1.4584099174200975              2.313740662352854              2.743341274894832
H              1.5784365813231365              1.6611867087358383              3.1516822876097406
H              1.985055293826443              3.8527119060816846              0.5857861417529888
H              1.3659148693197947              4.240219961845198              0.6511695425194219
H              1.5636378798399493              0.8063077080110568              -0.40793249538400184
H              1.0599517720112812              1.017577889335192              0.08083329910484553
H              -1.9529399381681136              -0.989260309208011              -2.575376133245544
H              -1.7493716056929456              -1.3531141739670305              -2.0259586702350654
H              3.7361186704900593              1.6531614665411196              0.9313327799357278
H              4.311971510640886              2.0663682014059974              1.2572808000628135
H              3.7388835427316316              4.726750839145243              2.9978315243683284
H              3.627061730269335              4.140279158833844              2.5182186511117317
H              1.2464473998059884              2.280050770053772              2.398170246876895
H              1.7303196196655564              1.9475238196293108              2.8057337518214283
H              2.0132558484529235              3.8641893778374237              0.6478931194097118
H              1.3179314814751961              4.042666773787103              0.7998255479656146
H              1.082817730367759              0.9420412702577652              -0.6110304480271879
H              1.430393732888597              1.2135787879885107              -0.08587253682954928
H              -1.8624639358887707              -0.9685052280919946              -2.596891172460607
H              -1.1844223176520712              -1.073272221569648              -2.157060620558724
H              3.859437674392443              1.6510330816989212              0.9912117989648795
H              4.348684707548428              2.2807871370606345              0.9897461074007375
H              3.8998688000274644              4.590678435937533              3.0371998569623813
H              3.833017542330045              4.428711184907574              2.324824999244337
H              1.1250871115440577              2.066302601117517              2.388032434153894
H              1.8017816047873003              2.1600869727942142              2.7366132749166123
H              1.530744533706342              3.746188471929531              0.38915169621602885
H              1.552615255588661              4.050693649864204              1.049629551468255
