72

H              2.378868724306721              1.7368609484268207              1.0599200624246203
H              1.7505300618623747              1.5671196229867153              0.6738189008383952
H              0.9345387312729139              -0.6964168455817564              -1.8000152898187953
H              0.7627878388728622              0.09115483376800992              -1.8334831705497792
H              5.178439769370458              2.4850494950865576              1.1318712725110354
H              4.8561363155199775              1.9084772111601707              0.8484094128618376
H              4.007381584371815              4.448364243914255              3.2603861265374556
H              4.311577311368344              4.468999368004031              2.541977274050374
H              3.620222199280126              1.2931826707943577              3.4551392295980525
H              3.0895580350569762              1.903469978462315              3.4056740695563614
H              2.474128843709202              3.942990372653599              0.5891647415545406
H              2.752489530385037              4.597699805585933              0.425396438390796
H              2.0369159881187926              1.5353428867281653              0.9540453920495487
H              1.5125004728856901              2.041819670041995              0.7141285014579449
H              0.7276291224814115              -0.6777388527016653              -1.7081429905810854
H              0.8506421081602564              -0.05712858434528072              -1.8643525282569604
H              5.060549408949722              2.509921893547536              1.3133263447132553
H              4.888288030550203              1.8019608187643776              1.2855919361234613
H              3.9695244953481317              4.788118685008023              3.2358353409101235
H              4.397014157459143              4.324210098647706              2.8162719268427576
H              3.661184433063136              1.1369979001748085              3.639138280334227
H              3.2122996610185397              1.6628247132448029              3.4114131488861403
H              2.91431457608384              3.971768952552845              0.5002100411546103
H              2.9501173668688034              4.6370426208879065              0.2967364208663316
H              2.240168414635315              1.1867957904820516              0.9104023764650406
H              1.708032924904232              1.7390306944454397              0.9166774492542535
H              0.9383344150616488              -0.8296193452093829              -1.8204571005752053
H              0.6205810487275423              -0.08903402719381776              -1.76869517049583
H              5.1358583956653145              2.5429896395475744              1.2158142968747365
H              4.825236605190064              1.9699166793273573              1.6894479016774464
H              4.0377667906012              4.918094633581766              3.1826806112947796
H              4.494771612405784              4.4126770990172774              2.9789379665849327
H              3.4175501881500825              1.1939020272916003              3.491151258051541
H              2.9324909567589184              1.734701207943456              3.2981397287693066
H              3.3247250061500657              3.9021848355460804              0.43189990758435987
H              2.994079157177076              4.518404345775547              0.3376672785538877
H              2.1052277627729987              1.5323689950878083              1.293015790811807
H              1.7538592984914012              1.6624298411075142              0.7245026379033787
H              0.8488382332701389              -0.9042334280669893              -1.6305649233924955
H              0.39321101258166163              -0.25020196375589676              -1.7876493108084874
H              5.373274007220398              2.6313756348238546              1.2122459935065477
H              5.284387910407857              1.8749528420649237              1.1517347755674903
H              4.013542078126126              4.88633909571401              3.237092850122761
H              4.534532350795428              4.632566381802915              2.780881018248495
H              3.2204623127750516              1.4716996203568107              3.158748242552786
H              2.9759229465267683              2.0301150590329495              3.531978499469763
H              3.202094977235521              4.045777073113843              0.7256547207837317
H              2.853531615155003              4.696460355241253              0.5151586919736866
H              2.535442669470328              1.3025933721486707              0.7026111329285704
H              1.9894845051304026              1.8140508169641596              0.9185137639374259
H              0.6438406210494818              -0.9351629454484764              -1.924755174561167
H              0.1399643050117017              -0.43499040445919607              -1.883733849264004
H              5.056492542612309              2.553173889659133              1.0896588969221346
H              5.104556795376438              1.8622054915995183              1.3913972622757238
H              3.7065920546488074              4.709548251015285              3.1275397351996377
H              4.412695294919862              4.613578773918567              2.9908708159008053
H              3.2523884764911832              1.5807879846519024              3.2656324110410915
H              2.9037394873986133              2.201837967778059              3.3222412720169867
H              3.0077873336251764              4.068331384176713              0.6151736982747478
H              2.617122001544325              4.356320050898313              0.07802580678846495
H              2.65432854642699              1.5117147930998518              0.8863690258075978
H              1.9577568503527447              1.6360703395019622              0.7408849947990895
H              0.6476665441429336              -0.8599823558346155              -2.150128232048868
H              0.3790903565938237              -0.20772849205730515              -2.1173964699183627
H              5.15096875617926              2.5927290388404227              1.3116871983509144
H              5.159252957468026              1.9206216836808974              1.4028701011534406
H              3.752452950251546              4.686273284154574              2.9503814878964105
H              4.479030278625234              4.627964822776605              2.759896661320737
H              3.0841844853352853              1.2776876415747938              3.0644608528852557
H              3.232681660595613              1.7606395318307515              3.5593736308765815
H              2.6304724550029093              4.005986214420861              0.7933936800633584
H              2.6125776229349915              4.445639550471332              0.17816696537479962
