72

H              2.208493555220902              1.97327877661998              0.5016630329373316
H              1.6620464889843078              1.8270820609269514              0.9980753096264192
H              0.09468232550347198              -0.14130432542011254              -1.8775978422026205
H              0.3238377054803581              0.3732679159471381              -2.3789298961542262
H              5.555257103488557              2.359810665070798              1.082858921979914
H              4.927785740054706              2.5097618688710335              0.6627336405008619
H              4.292689386380425              4.668379922442686              2.9265022520163275
H              4.090121487836645              4.042299030879295              2.7241793483092582
H              3.590526969961615              1.3466775528677213              3.182011307677407
H              3.396542799597495              2.0679951016913196              3.0696425099134066
H              3.000940281783692              4.160997252624491              0.4788178197694348
H              2.6911418821700805              4.75441891045611              0.7939393048344795
H              2.3034917844165537              1.602325812488311              0.6671888717041599
H              1.6879882572704419              1.9374046419201763              0.8038304891347262
H              0.16119370470004946              -0.2497927853619533              -1.7822829786570067
H              0.4893404774590576              0.4188766571180279              -2.184734884857394
H              5.0466573242249195              2.273598945538638              1.3267677849556583
H              4.749414953026752              2.5390094095113374              0.6037316983177805
H              4.38515682925102              4.284697853062224              3.015249783051828
H              3.855344157593313              3.8746118987314775              3.229690111104223
H              3.4413995035812004              1.388455242642401              3.2227596658284776
H              3.389837807499922              2.0790096844434216              3.2150147041946444
H              3.1221943393268763              4.169495690989133              0.12946359726680676
H              2.8126765616622698              4.341372246030983              0.7968120348455021
H              2.198686913061138              1.5104901194572247              0.8817596960197642
H              1.6521919611625235              2.0057843521908554              1.0872053503243622
H              0.24200840573659702              -0.3142032966205365              -1.6310876043134173
H              0.3697196224937352              0.19167675939218434              -2.059744059156986
H              5.3130688256292              2.4446402474911304              1.5427525624719645
H              4.977199328201536              2.2822501242644457              0.9389075593622225
H              4.515111943206285              4.497249981274235              3.082510153760696
H              4.075014094615329              3.9096299342720497              3.010134558819097
H              3.2086729198923543              1.4796237019487988              3.3132497673212304
H              3.3396623086587893              2.1173281430917323              2.969827954639261
H              3.317114333884921              4.305582121161684              0.2319592598393759
H              2.9567793736285597              4.560487499333595              0.8417809881559788
H              2.2906979264783556              1.7235755726253905              0.5710459569810437
H              1.7300874214459985              1.9240183951029735              1.1106946832161535
H              -0.10126934477728779              -0.4264188630929365              -1.7711383600576522
H              -0.007287031188873806              0.23894644186724723              -1.9893585288928746
H              5.450789246088524              2.4813060437963954              1.0918984352708572
H              4.910106099327996              2.1755283763132205              0.6949799771170103
H              3.945524170642799              4.720507489008077              3.0213269900010937
H              4.2727096541926946              4.078999317560622              3.0864324922239423
H              2.9580852678084115              2.0929581091564784              3.1832327631656363
H              3.52245160413742              2.123239362441793              2.8503337981188177
H              3.1962126934138544              4.287253339423308              0.10927733787970577
H              2.9062405585161004              4.521618317132616              0.7217525468682715
H              2.3733785457238445              1.6757278416599104              0.6562159027947396
H              1.760300734151157              2.082423330950369              0.5038666922001921
H              -0.2354497733391454              -0.5687576126093541              -2.0553568950072068
H              -0.09933869210115902              0.11204564742384976              -2.328886253635918
H              5.300577572112731              2.3615049481464134              1.368094393682
H              5.004594511727022              2.1656354562904294              0.7352159826487852
H              3.8834820196862117              4.862589721063271              3.0406960737472115
H              4.1223977697201715              4.158576607177666              3.031513360764019
H              2.94739589579253              1.5083048254595983              3.3081201776883495
H              3.4261079898407716              2.123376851829974              3.0357534075107035
H              3.055153240540237              4.29669150118739              0.35860430156416706
H              2.581440943815577              4.839474969869714              0.5067009534144477
H              2.453109428344189              1.689014603741688              0.39688787487068855
H              1.956596723861788              1.6069522973505816              0.9378118031242733
H              0.2191630842662261              -0.35634164592475587              -1.9727534522205696
H              0.08849956486377407              0.22835516928700875              -2.407075786485129
H              5.437586091001069              2.3080142624750932              1.228777087299406
H              4.638369428194972              2.401764737189804              1.0939778089439445
H              4.220918801142301              4.648929982222706              3.1228712569952215
H              3.9838795406530862              4.244466455891688              2.637360705595149
H              3.2573755532456747              1.4783432981311957              3.3810974038224444
H              3.149905224273418              2.047088198738839              2.927172274954919
H              2.96967605053161              4.220415373308981              0.5032735868099005
H              2.532824979159724              4.800794777359387              0.5033714289357524
