72

H              1.6514544115503451              1.0984332445789973              -0.6376772003046791
H              1.3163980924772605              1.2725716351545875              0.028195698785339906
H              -1.814512694027435              -0.6791279149921058              -2.4257654066488223
H              -1.3890121032065037              -0.9009536312618128              -1.9327534200059295
H              4.015125298316821              1.6972122411259576              0.7800787882366754
H              4.499778977546121              2.3277697250636527              0.8333499773447335
H              3.952319522761366              4.435834201832436              3.1262591017402763
H              3.940737469578904              4.193766627985925              2.3388133573500953
H              1.5500813129541517              2.337091917654785              2.2155893123417973
H              1.7921470481954784              1.7898245261173964              2.6971281002399854
H              1.725542501186708              3.7258530421041214              0.35291852368793647
H              1.592525770724623              4.242424563795521              0.9352967411106666
H              1.7259098532283246              1.203384624841881              -0.4920774391181865
H              1.1417476151833583              1.274497653880052              -0.044695966083112604
H              -1.5004532726420614              -0.7693105510832547              -2.4698602170359423
H              -1.1243141414103832              -0.705253453730728              -1.7724669530468868
H              3.8222915166403406              1.7973056592845555              0.4734235187852664
H              4.302973792811547              2.1002321789227185              0.907572318106145
H              4.006165659722481              4.117049554655615              3.343333858270708
H              3.7466867265154824              4.2136891651513855              2.6167695668982307
H              1.4459293562897848              2.4339377799047006              2.410712612920039
H              1.8516970991182713              1.8522014770417166              2.679595245894835
H              1.6619077863302807              3.7422044636524046              0.02916590212380314
H              1.5890620682251289              3.841355684793678              0.7557053800238601
H              1.854232933482069              0.9615084103047009              -0.32615024095556017
H              1.231875178305924              1.2011458484501876              -0.0691529299765156
H              -1.3859466365224393              -0.9026128850366725              -2.420556374969366
H              -1.0294262011938002              -0.9826008292802022              -1.8034389521640781
H              4.211331265261704              1.5746669924604904              0.831734569614486
H              4.579140796405785              2.2765845638844184              0.882950977540792
H              4.157503184950179              4.534176989248802              3.1189115152785787
H              3.739783771050595              4.186156474452071              2.6016235704241475
H              1.5466738264566822              2.3289652806593604              2.60006033777674
H              1.659378171635404              1.7888202132479802              2.9971459567104617
H              2.039460356651088              3.6993153633913933              0.19638088226329167
H              1.533324835675765              4.028917363588464              0.6678368869441477
H              1.7683491522297154              0.9484149227993474              -0.4183618402409358
H              1.0665199986933591              1.1779119923909727              -0.29239544160395253
H              -1.6817647293774673              -0.9201130735930404              -2.536751962042348
H              -1.2455735614294299              -1.1153426138860414              -2.0134967764301814
H              4.288034515122283              1.5227077783980123              0.6860988501010133
H              4.468998976227654              2.283504965815195              0.7254834785232369
H              3.7905273458754882              4.701414149509088              3.054029723907227
H              3.70195034588626              4.147284622202613              2.6070785650912587
H              1.38266130694687              2.4160846284510495              2.695576560626454
H              1.5912178135843085              1.8170205272416906              3.20191504284712
H              2.0839443730736034              3.7485936091808947              0.39383871964510314
H              1.3524498934112321              4.003833382028976              0.5444932427604315
H              1.3097246224682655              1.401767131033647              -0.6311899101927307
H              1.4785020681972336              0.9415725089900715              -0.024763564301187882
H              -1.7888902653935295              -0.7896158042585342              -2.4840626168347524
H              -1.2614019450209015              -1.3002304309460901              -2.037428972316427
H              3.640136913343142              1.7305931134118049              0.9131850061435128
H              4.311806398136804              2.213201692788873              0.9275236814508131
H              3.825928841718972              4.305227094859429              3.1070448347463056
H              4.025738584571662              4.348594499136716              2.3913849008068846
H              1.3812053595308804              2.0258156018158164              2.484849510489699
H              1.8341066176352931              2.0642822480435394              3.129309368559295
H              1.8451643235547182              3.899199815165299              0.6462724895837427
H              1.2858757626005493              4.231114721485488              0.9515359836651268
H              1.5800010762434942              1.0016408254846558              -0.6226090359559351
H              1.3717871059176228              1.5323426351444616              -0.1727747898252308
H              -1.7597929525331875              -0.5795760288895756              -2.245015270870217
H              -1.2731614739125539              -1.164089880244628              -1.8168630060075013
H              3.787287961791766              1.7847329850325244              0.8714094867099434
H              3.9843323013999727              2.388455010831585              1.2582921077294014
H              4.111357242455322              4.358394475245383              3.000397809993498
H              3.8855178008699656              4.171399855064638              2.3251317273168213
H              1.52404596739752              2.418106690783416              2.7171232465248787
H              1.5647124095348746              1.5663051279385958              2.739526372769566
H              1.7406951437301559              3.7406868121424326              0.5525053091560393
H              1.4357736785163995              4.018765731401606              1.199364942048762
