72

H              0.8893242015652215              1.0193727711490101              -0.4633493125077117
H              1.5097888010237535              1.1516671426351115              -0.18119272712785664
H              -1.539333286857906              -1.4057184961707774              -2.2956067923647665
H              -1.8456367742091495              -1.6283446276377893              -1.585973733066872
H              3.5811622844585558              1.4548682442460767              0.8347968440103374
H              3.9713542907369335              1.7768271667126765              1.461691843539272
H              4.25429563581103              4.284435802795151              2.708850569711159
H              3.6923722844427536              3.842935774424686              2.9231330616054003
H              1.2539504925536635              2.263064865121524              2.6750728645275625
H              1.7354850799275177              2.0870522345442586              2.182786894607883
H              2.100613250170271              3.968854338532988              0.3851154491489417
H              1.6051253013729287              3.8761884083408096              0.9046827548239539
H              0.8772574846560957              0.8458908711638535              -0.3943943657458321
H              1.4898609851300224              1.3934316549777535              -0.37816677366934237
H              -1.5348704179123707              -1.5642591883561554              -2.4586700820281138
H              -1.6635873764185702              -1.4591396277052575              -1.6553641558120282
H              3.9783741233265117              1.2675680667710516              0.9021590783974122
H              4.386507656648975              1.9357177939807046              0.9107455982146063
H              4.045299154719611              4.60273109931712              2.416952698372252
H              3.7840963314726337              4.129348922648897              2.9139155908211314
H              1.2555030377256788              2.279181751233094              2.7247237431348665
H              1.7875324360386349              1.8782429399032223              2.558240534674266
H              2.323288652045036              3.9048770740032683              0.1992073227844471
H              1.649111297777893              4.018947513280078              0.5258581152917756
H              0.7643161686240829              0.667011027280137              -0.4408808058169986
H              1.3496688328967645              1.096068129796742              -0.35945511786119494
H              -1.5623171225687449              -1.551163366522954              -2.6672605120705257
H              -1.6729945050485617              -1.5699582260817777              -1.9208150597376423
H              3.80199304750681              1.2620332771384735              0.6243050020004145
H              4.2624348795653955              1.8752138020945686              0.8481859083206753
H              3.9609116513599725              4.583899398581099              2.6666175394610874
H              3.498926463207633              4.038048670420401              3.002768616590368
H              1.224052057832719              2.392253849008859              2.607447727998588
H              1.898540880023549              2.0005449714394454              2.809541200781481
H              2.284861007783971              3.8689390689218697              0.006711241440848887
H              1.8182436087487284              4.098181157001407              0.5179800083196662
H              0.8108648642506637              0.6002809419227203              -0.5223417568704168
H              1.215849261499449              0.9320590200034913              -0.056615027742966215
H              -1.3816419361271626              -1.5794145554586299              -2.5397148360377524
H              -1.2969578499648389              -1.8551049890498919              -1.8149344456172511
H              3.836875860834456              1.3093800683720973              0.9167496059641808
H              4.2560498359437675              1.92731626822726              1.0787944581177347
H              4.145126084597345              4.448830596933331              2.546087394261951
H              3.6643659075606747              4.040175254260751              2.97456792839955
H              1.0617736776160134              2.236751103777006              2.8097723179236698
H              1.6979689647560725              2.071699630518414              2.689302830635094
H              2.285498362959949              4.114366905117726              0.3873453805678184
H              1.661775435544235              4.131283390689288              0.7919038959163366
H              1.1369590755036956              0.6195148268720049              -0.6046669872065834
H              1.1631451052980006              0.8776658009276945              0.034741771495438195
H              -1.5943872182737702              -1.3249075509316541              -2.2121318714802714
H              -1.532569568341439              -1.9858334750912865              -1.8909718626969914
H              3.7043977433068127              1.3298641965176332              1.0527829684641663
H              4.033623029110209              2.048077178194747              0.9942561995048363
H              4.1435525174304795              4.450793062011556              2.3285793436587543
H              3.9273362579360227              4.1209482740384935              3.0296015228722637
H              1.3879370505415787              2.2807843001202355              3.0318240389488715
H              1.6360615893233117              1.8870145050931921              2.534141545331241
H              2.3549628039918016              3.962836732753776              0.7298737617813081
H              1.5841349531003577              4.121476758679143              0.810745610379276
H              0.9992291042575866              0.9425056014175752              -0.5603710641437123
H              1.1998422282084757              0.7750820960299387              0.12720806874163404
H              -1.744707026762839              -1.4314578346378204              -2.3052845174320673
H              -1.8536933497825472              -1.767483907591137              -1.6657745398724146
H              3.5381900473401644              1.4686852941293962              0.8278942295631448
H              4.049024816658195              1.951485770687427              0.9681503615906853
H              4.068216354928392              4.502814973909972              2.576670452599134
H              3.9588398829588067              3.775318343002213              2.781943207768103
H              1.52569464557035              2.065087296351704              2.8376492972891363
H              1.662246050260535              2.1771741867052015              2.0386850291227288
H              2.299541950226247              4.226734338943242              0.6986717151796521
H              1.6065959909050602              4.355169030367746              0.9927429134531636
