72

H              2.2906602380460477              1.6246702126633614              0.5860094263998371
H              1.6436337178310858              1.697177530749746              0.859821706506705
H              -1.2180834902794506              -1.211552318768558              -1.699778904213259
H              -1.5148085541558642              -1.3654233621988612              -2.4194414691085515
H              5.102593959233834              2.122415630800588              1.4011876738231215
H              5.21882712071201              2.566021791665422              0.8667962330357661
H              4.541983829541608              4.893969210072993              2.71559900757309
H              4.481054771331118              4.137763144205938              2.892677558284901
H              3.1062582736104676              1.4275059106948067              3.938944875197246
H              2.784685601110483              2.210264003820445              3.55978559787852
H              2.9825695706595328              4.602565819344316              0.7310636918153924
H              3.008348719284479              4.094536986935683              0.21204187147805897
H              2.2491736002245744              1.1311699074940909              0.4764951847199478
H              1.7099735402803047              1.499987812704845              0.8308047675264483
H              -0.9489089124389258              -0.8868794351663246              -1.7699129271726755
H              -1.1494024642553542              -1.4416653372686676              -2.2217535427860007
H              5.076744204240131              2.4200911392868845              1.4367371811464125
H              5.122905228773427              2.545754127378918              0.7297147673864508
H              4.48626335158534              4.9026164146247435              2.745205318920944
H              4.530416918210491              4.185861382833831              2.8768439066174962
H              3.241932508785062              1.8918418036460685              3.878983100302458
H              3.0017302818308007              2.384692159675928              3.2520562197440177
H              3.1692395099427784              4.40532733436148              0.7067548889954955
H              2.594366217393662              4.321639274528568              0.2620640487584198
H              2.108032937159147              1.1311102084156626              0.7949787020972948
H              1.8331228742189276              1.745841639073279              0.6383258611038682
H              -0.9699491297721804              -1.176027620253678              -1.7576661697221925
H              -1.0378338611011226              -1.4671508341560853              -2.3591135227983404
H              4.891147662720507              2.5569104834683283              1.2460006465332376
H              5.162991716569981              2.3635674726941818              0.6297551987391201
H              4.140404077976316              4.941025269066429              2.8125928643320983
H              4.444313972040841              4.268261567316184              2.8531143364729266
H              3.424149910477751              1.8176257727835903              3.762614302821206
H              3.0287261701332966              2.157483461941458              3.227510367371589
H              3.153592131773293              4.734593223194342              0.7134062573663418
H              2.7430091578557514              4.420178090476181              0.22079433812188065
H              2.4270426393029676              1.2126024554349286              0.8490319141594382
H              1.970456745684156              1.4975698732164664              0.37363672777499685
H              -0.9957028024549581              -1.3522306661198134              -1.9892136208735878
H              -0.8772668631374771              -1.7600228051110878              -2.559784040985566
H              5.104631268242266              2.1288645108941324              1.5221788048769613
H              5.19804625335487              2.4934125499715067              0.80712283757974
H              4.175993486370163              4.772148007284161              2.9186633903773767
H              4.247202337067714              4.020616457745604              2.9510098534569087
H              3.135346149129042              1.7764538105836587              3.8515307491396253
H              3.0672302914396434              1.9051670297487882              3.1070696215674016
H              3.202851659457516              4.428732072295607              0.36287168897574856
H              2.5854924112803164              4.143396748476791              0.33036895705471014
H              2.4156948586196285              1.3450787268801125              0.7763606513890767
H              1.9951389299436186              1.966692615718759              0.7867821828539691
H              -0.8488095008717235              -1.3762105454377016              -1.82826412092057
H              -0.9895256755219797              -1.6602607313345772              -2.5356146715870183
H              4.870977330492254              2.3644968890490476              1.412003857441028
H              5.325925853921578              2.731900894971678              1.0313201791099804
H              4.569900197273668              4.735962597799783              2.8501806982346287
H              4.654617868373905              3.950946230852547              2.9578670303536203
H              2.9613069302434925              1.4787176145475835              3.4739264475093115
H              3.201593713514894              2.172562418622066              3.2719339655320447
H              3.171328866301247              4.5677710682442125              0.532195745784441
H              2.489394375529343              4.21634525236209              0.5311923367285989
H              2.160837869780643              1.2967526360331134              0.6284562247159888
H              1.9025424041205354              1.8114122656873421              1.1505198277370239
H              -1.1525315038810655              -1.3464967233918792              -1.531372757505546
H              -1.2870569551350703              -1.494535699735944              -2.3038745483380807
H              4.918700224268942              2.32234894317151              1.1780112984497
H              4.85115609823616              2.6214553490558115              0.5127436141351096
H              4.6563528411529305              4.582836402828202              2.7418942077768858
H              4.573232692835491              4.116025974696568              3.2831925291272883
H              3.087387158419414              1.694889507493395              3.7921470199068024
H              2.915883408267933              2.1985048863535206              3.264455139519482
H              3.0215976613699014              4.716130381575576              0.6851674818811565
H              2.814760207928341              4.1892560092657956              0.1549279670637141
