72

H              2.3298224670608763              1.3462097672811641              0.5403105599229351
H              1.813147391350966              1.7810871012262797              0.829278383586431
H              -1.2251215460824516              -1.3566707438986607              -1.637569707355886
H              -1.338708681734545              -1.6306268621342537              -2.2534106965382157
H              5.157082678176327              2.4945314667947813              1.4127454425747827
H              5.020548438562029              2.4042111365608982              0.6706014845109772
H              4.770120192752763              4.560905906205691              2.954913345277724
H              4.467711936045797              3.8853112839821424              2.847036954276031
H              3.198735157341858              1.9070583401194987              3.6503908476633087
H              2.6548092969831503              2.302865925917942              3.386978665792259
H              3.234711405719076              4.793766918722597              0.653724774452085
H              2.788063312132386              4.449256423817685              0.14630557426101307
H              2.3147694620633676              1.2337697330253055              0.6707998451210686
H              1.731591518832169              1.6589626718514427              0.6615503307969606
H              -1.5974999331994              -1.192105908446586              -1.763372583358441
H              -1.3559359133579407              -1.6137947526050196              -2.4095783400662207
H              5.367153195647765              2.4292713521668716              1.3528463605892926
H              5.07261881404223              2.54009702910403              0.6442361096465149
H              4.483382991187643              4.849072844249183              2.752891188395027
H              4.556496913092216              4.165581606034646              2.9580851702281272
H              2.9084710160773946              1.9026999863424023              3.8913837182712157
H              2.8611362262080617              2.536714918031511              3.7216037813972616
H              2.905227525652304              4.565099476282991              0.750487482270644
H              2.6827507286505567              4.338675247037053              0.0642120612746879
H              2.609678906960767              1.2704498008811356              0.7714171907940172
H              1.8794615399668917              1.2532776045753615              0.6550228319508046
H              -1.416305155893357              -1.0713721535535965              -2.1272269408343973
H              -1.2030764746214153              -1.7124107521077525              -2.608301413458676
H              5.084464058350287              2.3614167892434788              1.1732190944027998
H              5.237699457879167              2.6835116915407804              0.5089004528779257
H              4.28976870940749              4.9825924612703485              2.9255938429240174
H              4.438840938091736              4.212088779853052              2.8852827931419878
H              3.2792607165920815              1.4772582405236947              3.560692728684976
H              3.0246450494646857              2.2814080453759624              3.651219568763333
H              3.009351279942188              4.381087010580757              0.5706753202515743
H              2.287962037708636              4.2336568278167945              0.3714770755705685
H              2.3861168063317235              1.2489475711157734              0.7247834953627181
H              1.8052716299231453              1.7296327961272              0.8813041536315012
H              -0.9990453234808503              -1.2061242132008752              -1.9470541433771111
H              -0.8169033322872816              -1.4944777200073156              -2.644354753806308
H              4.842597418703916              2.467287756362077              1.1096059518802697
H              5.22444421147234              2.288204875401917              0.4997723007440961
H              4.140267054449326              4.802912773018118              3.1100450856844133
H              4.515765659727868              4.1968070249242775              3.0005403231946857
H              3.2260320762029835              1.6825594383506606              3.6837985062929466
H              3.2910272046884437              1.9052440454700512              3.015417820244479
H              3.161646255425074              4.336934641827685              0.9277351593859292
H              2.562502562957031              4.153153228861476              0.39190274050256557
H              2.2029882990605505              1.476306470425347              0.8485750678308077
H              1.9277805602067863              2.0584899080396686              0.620163737617484
H              -1.0233040847335722              -1.4358563596780831              -1.690248926529276
H              -0.9711585393393942              -1.3385721395154297              -2.4259261537263543
H              4.781024682829389              2.1001979073032393              1.215994863370653
H              4.958663983690377              2.3597406930585594              0.5271277784590818
H              4.38496951789893              4.5726077974818065              2.7831046707226617
H              4.632616518367991              4.117591940004706              3.3222849836982036
H              3.499400886259133              1.5440501853468258              3.72546581460425
H              3.2822564811495964              2.183963818957467              3.2575726619176466
H              3.1713403785364234              4.633149225933047              0.9213438806592803
H              2.98769136388167              4.427465657267998              0.24957742323831225
H              2.157888575844017              1.7779120808549336              0.28479119007814996
H              1.915115819077837              1.789380382016573              0.9627094008788458
H              -1.1735564013689168              -1.3696193559873377              -1.6879197182807775
H              -1.455287088488461              -1.340281313056737              -2.3507009182535117
H              4.891631246883249              2.0342358176704787              1.4481893503290328
H              5.0507910656759085              2.4914666124905045              0.8531782751913317
H              4.545753493060581              4.689548208348559              2.756738728865944
H              4.631291231318367              3.926636330820666              2.8677940039578727
H              3.552189490465723              1.6056845221892728              3.6384912378437337
H              3.0159012658104083              1.8097146127051695              3.199046649300775
H              3.2265807854689124              4.563831984644269              0.8284736731843989
H              2.7982043974568307              4.301063354990498              0.32282568971587255
