72

H              2.3850039297333647              1.762273951386109              1.1840600938830501
H              1.7728688266542718              1.3970338364004256              0.977362987471484
H              0.10528060091696777              -1.0695328478336101              -2.054558050270391
H              -0.6261645352138211              -1.102865750011332              -1.918930078009324
H              4.63141367879562              1.956167304096751              0.9750884431640142
H              5.022979192442624              2.607554263190048              1.2320038623328518
H              3.951842062952138              4.764356262550273              2.4649053566929138
H              4.089084022827511              4.72070680304211              3.1776284986193444
H              2.574079751460668              2.328686610178464              3.670107938381852
H              3.083724620547876              1.7589760453469976              3.58706651401217
H              2.634892592065363              4.376097426970759              0.25024565810232535
H              2.969491966933193              3.74571137263818              0.3708566083456447
H              2.259443214019003              1.6059894380148911              1.2299154180007885
H              1.620930319344058              2.0101790742141503              1.0255596758858139
H              0.35557440426868364              -1.0730262896394056              -1.954624933182864
H              -0.36276152422050983              -0.818252325107091              -1.702024991262732
H              4.695295900593702              1.9955472008118096              0.9580087089194363
H              5.084242162365084              2.3807461058008856              1.4243878623133952
H              3.8598482477690537              4.8090865256312005              2.664102422233127
H              4.462556111106688              4.7799210918576795              3.0749121080668878
H              2.6730616906573985              2.2261234914610517              3.3376050523033727
H              3.223155642834944              1.7739160329645838              3.3491404369473616
H              2.9874189841858247              4.558661028146312              0.5623698976163051
H              2.764116372711803              3.854509844486795              0.39423620981750895
H              2.1185850099996095              1.7138811686002988              1.1480229585197315
H              1.7180425597424682              2.2923988727951374              0.907372359909939
H              0.24403519116112316              -1.1504166229702066              -1.643208150121873
H              -0.450452169128037              -1.204227518091816              -1.601440450197634
H              4.794533868486086              1.9394905839899914              0.9487475999672541
H              4.859647229737223              2.6253436849967944              1.1644742489702473
H              4.03583855476594              4.67192676935621              2.5940004078825596
H              4.390870247553596              4.748039291250541              3.2452250288422575
H              2.681902359003481              2.5910993511192335              3.6502955696541752
H              2.9980680020919244              1.8689370384782098              3.405620341639926
H              3.165084853835253              4.553905621656528              0.15091234934777928
H              2.915065123331733              4.001213198298675              0.5442030295902075
H              2.26617083990595              1.6512183323871774              1.1031978933028956
H              1.761108670306572              1.9284547706731185              0.6294587100559003
H              -0.06876912253385804              -1.2449208487941301              -1.894727699079036
H              -0.7281805942589594              -1.4170078613691908              -1.8773679050939465
H              5.028352491958728              1.9802272408996475              1.210979520227107
H              5.047839726723221              2.722868482625571              1.5386686085671955
H              4.240989478292973              5.0294141142955775              2.4225176521928367
H              4.126683612683093              4.660285239222763              3.0966195458160226
H              2.342698499362415              2.430568472344514              3.864577303798346
H              2.759488467765342              1.7600837540320933              3.709340202566223
H              2.8151767481753174              4.233655110255613              0.12784820502504815
H              3.163594816857925              3.84824325275785              0.567656024975707
H              2.3230399351607676              1.2144208465512956              1.2455094123619288
H              2.008519821725191              1.7412589907410134              0.7351513231845356
H              0.09928738036200423              -1.138821696932026              -1.9925567474211305
H              -0.6643369261138615              -1.5302424189416963              -1.84479503538055
H              5.018926653690294              2.178460247782145              0.9991600205434457
H              5.155832501206607              2.939148950132583              1.2107388022432568
H              4.259125347877839              4.790562265938754              2.418232842236823
H              4.174406953249425              4.781507097790875              3.1915599189200186
H              2.112245386693159              2.289464528777267              3.7970479847270853
H              2.856634936327196              2.3787349979879173              3.5992666324575624
H              2.7535622217552413              4.379243283891777              0.2993119572776502
H              2.7522023453363684              3.6632682912805707              0.5302787434931594
H              2.241155203905966              1.5951432461628052              0.8752330666700378
H              1.6721137884578716              1.5637548345155667              1.2823017924954554
H              0.04500212415369884              -1.1304177173625105              -1.8582440638183249
H              -0.7857942372516524              -1.2319803102251552              -1.9224641658878645
H              4.703758616572978              2.309809968863484              0.7597501892534501
H              5.278220792470953              2.655387737564804              1.0786458869165674
H              3.902544996894399              4.789496395642122              2.5124770354988994
H              4.246158767729133              4.812872272767684              3.1244832022340603
H              2.28218024755703              2.2040697324547844              3.7405866593366057
H              3.027705264683692              2.3818597054511614              3.670394642059144
H              2.510781108131985              4.359116475148145              0.4001044600728485
H              2.8749141319877136              3.641976107639567              0.5477121116211885
