72

H              2.1539205156356487              1.3415617719669837              0.7870964397269704
H              1.6224856397226546              1.8166630549763554              0.9020726798025964
H              0.593950777934768              -1.1942889389573228              -1.954944833313176
H              -0.09330696787664773              -1.2754940863794622              -1.8310722760245755
H              5.092911672563396              2.046961850119281              0.8688536376401891
H              5.1887125380085175              2.4821142803233998              1.4388131344717674
H              3.5927946805693436              4.741305536972458              2.6362898835065343
H              4.2546749683038545              4.611554443019209              2.9718377651477446
H              2.54241249592644              2.566842687493376              3.5753346766008254
H              2.719776755975617              1.9058220253182416              4.0043384297373565
H              2.8858034843511615              4.485325601551361              0.5492917592145651
H              2.9558961009318363              3.8114033871367226              0.21247461354380945
H              2.246200267712899              1.3817606291553348              1.1467583076579433
H              1.7463572313156932              1.6279193137696106              0.708785525766748
H              0.3835088029323211              -1.2423668610524317              -1.774013831434371
H              -0.3197193195508443              -1.351320760741789              -1.8625298847039713
H              4.98408086154478              2.287916415724009              0.8403459249900013
H              5.068995621086542              2.761666210033201              1.3815446272098322
H              4.1352512228169696              4.424117490016111              2.4898825497120427
H              4.164773638731858              4.7580733545722085              3.1033509641469763
H              2.4279841340914996              2.597501989582759              3.715830722728474
H              2.807393283477845              2.327946938549642              4.201784061180773
H              2.6799965117686084              4.429768898894723              0.4135718998185115
H              3.0523729477032044              3.783059831735721              0.3389996212851708
H              2.2373079817510404              1.2797559682018405              1.097602206180049
H              1.5149443483406035              1.1805925167583224              1.0781713053606063
H              0.11390307932678907              -1.2252761124120495              -2.0402516413659284
H              -0.5462328381778984              -0.9108570839491908              -1.739574094227316
H              4.740414090270565              2.4348045968664715              0.5901232121375493
H              5.116302441752763              2.3258371490383074              1.1943606739447332
H              3.868368112494049              4.580534081938138              2.457773558674866
H              4.0802341341499595              4.819871314671079              3.182701492914781
H              2.402562049873815              2.1304147308718986              3.7022899509262914
H              3.004961139715436              2.1057780016310574              3.9953175319442225
H              2.5695993750403985              4.400308526863821              0.4009267769756121
H              2.9712859700640646              3.801886148098525              0.4871885079621158
H              2.2463164587010773              1.5410892050545413              1.1215750258553854
H              1.5040592667021442              1.4484805644962326              1.1607476046723109
H              0.3204892261435425              -1.1660963964289408              -1.9715176504619476
H              -0.19658687805440248              -0.7934710453538204              -1.540447614825414
H              4.679635416735799              1.9636586814898542              0.5909851567156755
H              5.198516501409546              2.3437637029168807              1.1132803162653528
H              3.731301547158414              4.464446298785529              2.576400168953205
H              4.101343116045265              4.737139286374442              3.1918786806366057
H              2.3601272575099217              2.3098188753663855              3.7065496537131772
H              3.0712350593667077              2.1657280782689905              3.7463176085247176
H              2.7970298691530373              4.556830537217518              0.344284816801538
H              2.908134166267503              3.855287947158233              0.5967412157346764
H              2.117592247979434              1.7753678852842225              1.149379143011816
H              1.482377137516414              1.5453636877831587              0.9837699750999417
H              0.32315228835172244              -0.9966070290202523              -1.8584548083031904
H              -0.27358736143899287              -0.6718538557829518              -1.5353527877879556
H              4.681999988259399              1.970815626598161              0.7981807620978298
H              4.93667728544888              2.2606310197027715              1.436350383592472
H              3.7321947424153987              4.704824344833145              2.5876067592197254
H              4.22284701786368              4.858172546382683              3.0736135496648593
H              2.7626831974121204              2.6795857236836205              3.5242353858128443
H              3.1308052976977443              2.078957007769342              3.7132287359908633
H              2.666410340495541              4.435222910996102              0.33125450073782287
H              3.2412313696580095              4.04615736799487              0.4761755408490106
H              2.096946128396065              1.5170864812818161              1.318109631414412
H              1.8576740368638827              1.715699616910143              0.6122089880872073
H              0.3555752908448382              -1.0367460456546378              -2.0731243308698257
H              -0.19610959505758122              -0.9927934434403559              -1.6421963736624519
H              4.758949227524162              2.028902867729107              0.7276229577199221
H              4.79783014441585              2.4378165375416807              1.3652280894332696
H              3.6065059668704254              4.816721264851171              2.474501211642041
H              4.16781913998166              4.831915315948278              3.065278946994848
H              3.042451268304542              2.488783643287222              3.6347135814199216
H              2.824850107403311              1.847589806655285              3.556687412953624
H              2.8415298781057836              4.633149164606696              0.3069751125893311
H              3.111768649830583              3.964028081882489              0.3230621077710298
