72

H              1.0375478346172478              0.7143005216460382              -0.5243660784424965
H              1.5522443122538936              0.881462308947037              0.07347237779346512
H              -1.0496554198006458              -2.1129476929788433              -2.1191398397613512
H              -1.7551343958042196              -2.2862588153158376              -1.829301223496205
H              4.038214832489346              0.8692701364790456              1.2747132898836118
H              4.404246200746158              1.4436284959342212              1.0498253315878256
H              3.9738878895120657              3.748883220851215              2.7649069932139447
H              4.3229992357375115              4.206049469360962              3.2073942429335762
H              1.3143421994200233              2.0486740391771416              2.8915464108736257
H              1.5726001961770053              2.3376243984197647              2.290035671052138
H              2.6238808520851933              4.305143302483732              0.06282156470381944
H              1.952333918217644              3.9465042675463677              0.25960440453587547
H              0.7422863988100443              0.891223896733567              -0.33516225492156737
H              1.3713590360572891              0.7165985837334764              -0.048284280626481546
H              -1.019300831867431              -2.223153838366414              -2.0350190170596734
H              -1.7593404490669875              -2.122658998533677              -1.9326149194923194
H              4.102834333876332              0.8949640124025666              1.2267353830135368
H              4.21344566331949              1.6403496436227047              1.117739126590725
H              3.819581151174154              3.671128964970713              2.897482202098276
H              4.1664310574523125              4.283338770393348              3.0244644464449557
H              1.2776509057779535              2.0937408801343556              2.895898936229
H              1.8041025299354476              2.1885824274079777              2.3793718564569617
H              2.852589467202993              3.8675129769507124              -0.09970933992059591
H              2.1424298808815965              3.720427217734891              -0.013083127057479972
H              0.8173009341801174              0.5896876365858689              -0.29538105416159255
H              1.4111395792600268              0.9368492323224779              -0.45724668406808683
H              -1.1281812424738              -2.5242090943021296              -2.334232285950157
H              -1.6737605537237397              -2.185506017602992              -1.9746466724978071
H              3.6804166018958937              1.1915590905448132              1.294442641930062
H              4.314280349020825              1.3690077571169272              0.9491199756578319
H              3.519697593883312              3.7949430471096526              2.6961976246310204
H              4.060558928736735              4.0237272303896425              3.0782816616521607
H              2.0806389227767075              2.0712074596874994              2.6216074990668385
H              1.5329876379953333              2.363845827388555              2.1379398671064354
H              2.804205120296298              3.920369276151589              -0.16385989444049373
H              2.2452111843001203              3.9435224086080582              0.38001441223022475
H              0.576011768721325              1.051044164203729              -0.31766719232634855
H              1.276347824968946              0.9696486190772796              -0.4817611293553832
H              -1.0865834086581612              -2.281676399392928              -2.228717827401622
H              -1.718721330182073              -2.6483989882012353              -1.9567068341853258
H              3.451636571165029              0.8986945534188868              1.3008092154453301
H              4.175401363699065              1.3037367100416022              1.360587751827184
H              3.610991300797792              3.730579374616867              2.74356368908744
H              4.026788613100662              4.080947569080816              3.202114088942836
H              1.7819579565301418              2.1782280891185866              2.885163940921424
H              1.3600662184641692              2.1150740979731575              2.291431689853776
H              2.5700612064727193              3.7425317820857322              0.02275595981665996
H              1.9024046906152055              3.8410265731479902              0.43275913227186125
H              0.6956891136363254              1.0769085473552542              -0.2769025394044031
H              1.244436198079934              0.798762168818508              -0.5660025207381166
H              -1.4046233753741608              -2.2868109598681734              -2.3327280013252003
H              -1.908270154776142              -2.75858572962748              -1.967529194608796
H              3.784542750749872              0.8786304245562084              1.4207989031621797
H              4.342438482460063              1.3094163061443531              1.1599161301836833
H              3.61448268491373              4.186103116494034              2.8456193603570235
H              4.274425313272157              4.284656180962418              2.9002781824213137
H              1.832684661411883              1.952091852641595              2.8406400964495213
H              1.512412607792548              2.271213602167565              2.1919816996669312
H              2.5259180266285712              4.152283972202083              0.4245605429061877
H              1.8433986876687931              4.00185261098459              0.21311758693695926
H              0.7467352062830909              0.9941414869796819              -0.7297269832368649
H              1.3457754841073284              1.002190616214253              -0.30004987550147094
H              -1.4939678426093101              -2.108668774337268              -2.398039086284566
H              -2.022462345487493              -2.495434139229997              -1.9913204845533288
H              3.7339465852592864              0.8004971076190617              1.1148824408475926
H              4.316734655914009              1.3227633301057304              0.8580387702713127
H              3.647643680919889              3.977429251323485              2.85637441038694
H              4.214675860281404              4.248235434739969              3.2238939939654427
H              1.5583732737700071              1.9431483246422212              2.8686263625799726
H              1.4949662926128575              2.443006859302231              2.25050025897042
H              2.4681727994318705              4.312473673608286              0.043766203149005284
H              1.829200537893557              3.9710737151173965              0.2967752366816632
