72

H              0.7786647750061068              0.8331426694850927              -0.3535303272081227
H              0.9178511371081566              1.4579314604292617              0.03178527682358293
H              -1.5623018330557812              -2.1780232855214834              -2.184545531748974
H              -2.0955128709945323              -2.1892708234706144              -1.7552462188522577
H              3.578064335028119              0.9568223959811856              1.104642770240876
H              4.099109885277679              1.4501765553432495              1.1383361709163258
H              3.527491395338663              4.047449526580166              2.637550454358815
H              4.106456939043099              4.074407531369162              3.0595477472254333
H              1.554562137645761              1.8505107588850582              2.773701382030335
H              1.8405708766621727              2.2651424345753646              2.197054977855379
H              2.5479548042840006              4.042489984150923              0.3413761361889941
H              1.8681528232750761              3.916632190466849              0.07713733960002216
H              0.6391751959543706              1.0704175053236926              -0.4047244229985663
H              1.3631211097314164              0.9584279664386686              -0.21069007428553532
H              -1.4508650252578632              -2.1618280118336752              -2.53358946492048
H              -2.1057043805448044              -2.316180321095901              -1.9295834900974644
H              3.601533807379162              1.0227736534667864              1.242727031529058
H              4.352649556852128              1.1459004688655483              1.0257057104017533
H              3.6703691529034197              4.324075519020004              2.5635850786457413
H              3.785344753918141              3.983751618683731              3.20204147888676
H              1.5175858705878336              1.8793650265934703              2.4916544365941817
H              1.87563239318914              2.4935044322502335              2.3844242824476627
H              2.380039454123303              4.012088519400363              -0.05990997624271266
H              1.807767181086913              4.152763732265436              0.3991211865156079
H              0.5147043686981488              1.0973024301048804              -0.4086880554829947
H              1.097393922835067              0.7470171152229158              -0.27951232570612444
H              -1.2066913963356143              -1.9380518784176326              -2.405108152684
H              -1.7769776745173629              -2.3726253706029              -2.050946454636289
H              4.065168118901151              0.7911510963842362              1.101009571183714
H              4.191380044747267              1.4807395545553377              1.1714645851352983
H              3.7139600200756204              4.079906529463491              2.6056822107700777
H              3.871743788125624              4.458642870338082              3.1413009403675662
H              1.547148229134858              2.1047178529523034              3.128641501922741
H              1.425453856702092              2.1483450476399297              2.4128284554570865
H              2.464110710585978              3.9247863080654475              -0.1137500756872416
H              1.8073656541435434              3.9672763430627334              0.20677380828044886
H              0.7410144152290769              0.7886542222667626              -0.22871293559021147
H              1.2829529120056047              0.5132679314260757              -0.612725848799238
H              -1.2289443406800074              -2.067259196873158              -2.5137583258471476
H              -1.6672158589083286              -2.216771617900118              -2.025801941972984
H              3.978054385844119              1.088763969964353              1.1699520297133617
H              4.275592719945576              1.568571348219146              0.7241760660280223
H              3.689160359429983              4.094047459011746              2.5773200694522753
H              4.181538884064502              4.375748684166784              3.0340123626820437
H              2.018389365597012              2.2093991075657087              2.934817873103709
H              1.5901190597636228              2.1585556035335434              2.281384848557871
H              2.749800567132845              4.09237889501937              0.03624587103340213
H              2.0867908140139884              4.215874855788527              0.3989822333152037
H              0.8374941077146023              0.7858994700426507              -0.029747785462575914
H              1.1492458586883099              0.8742330181966498              -0.6625308119043793
H              -1.0278035649023316              -2.075507022840626              -2.238505405522357
H              -1.575697426360309              -2.1232373776884357              -1.7086350266358465
H              3.665878827104185              1.0375782002683247              1.0193653959316062
H              4.01358147291164              1.6337343316062778              1.0093485348658202
H              3.8325272911054764              3.590733446372671              2.640959677743018
H              4.160246367258795              4.019763031397155              3.22177691962547
H              1.6400039870651149              2.1104546640325976              2.94940822268171
H              1.482418691757862              2.1766993285006664              2.2444443642908922
H              2.516706466240872              4.272681353280117              0.059312045058599716
H              2.223113104100989              3.9533753356633725              0.706383956551196
H              0.7751123051768443              0.7981955814738502              -0.18037626200681534
H              1.3651510152432123              1.048983781892467              0.0979756345221409
H              -1.1322751782754756              -2.114626802849363              -1.9752022806157805
H              -1.680180103776667              -2.3054242138545096              -1.569799417401676
H              3.61942807599502              1.0764600244714484              1.3757453088503269
H              4.181057158298174              1.5537445389307423              1.3105895421073446
H              3.930356703928985              3.7409752053292196              2.5790790617559685
H              4.36569574462697              4.032636844017098              3.0695354806344413
H              1.3279686863052274              2.053876807287133              2.7300921561541682
H              1.9972405009618521              2.0229072617002566              2.2867834800534728
H              2.5915574861320514              4.210997045557991              0.6516089048582044
H              2.0178958543707095              3.85153692006603              0.3238533793670375
