72

H              2.175858185224018              1.7409002811322676              0.18001701077086738
H              1.7693606706623095              1.5330337010333221              0.7659143873120056
H              -0.7106128336943893              0.08920314626765782              -2.050961532748234
H              -0.2065125758165977              0.24176501833451877              -2.5860429203574453
H              4.552114116617989              1.9602095041173708              0.8077698663698343
H              4.348755489413529              2.7174589924869044              0.7020567582380959
H              4.027234437778469              4.275707307225058              2.728036458855471
H              3.8908630110173883              4.493877401356026              3.4046961652510976
H              2.9626444165379473              1.2430674328220963              2.9568456142162196
H              2.7815280801280426              1.867309231315377              3.2084331930574916
H              2.755966936971873              4.38450151507982              -0.04371369742219639
H              2.4187264018828443              4.40374603317916              0.632097549369186
H              1.774372864836092              2.0611829910108286              0.41427630928795045
H              2.0051197488316435              1.550294686703805              0.8831892356971179
H              -0.4826064727319651              0.10371414198382578              -1.8174460443245162
H              0.10867701768944733              0.345992629618584              -2.3087610380015606
H              4.852690593928935              2.139710660793046              0.7481877853271375
H              4.501771882000397              2.553921265262017              0.1947156769038806
H              4.347183319819654              4.484051272365778              2.687469864945394
H              4.038657943588553              4.155045342745504              3.3047627869352216
H              2.946348833794146              1.066905081961726              3.3040185046379467
H              2.9307065916126596              1.8465422172788544              3.2773159949804773
H              2.766206821905959              4.5063804666643295              0.04479788440807824
H              2.6541373155119343              4.347854203771963              0.7728764584797378
H              2.1506682827420205              1.8339019801575123              0.4949005153330677
H              1.5437195185021209              1.7466544951483312              0.9198119943448115
H              -0.8031466905269864              0.04268144283920951              -1.874526715999628
H              -0.04833453259982262              0.15475494050908334              -1.9558998108765409
H              4.420832742826563              1.9078576601421522              0.675508068188208
H              4.663520073223537              2.6001402269780916              0.3688775913719657
H              4.059285355687232              4.119342002119525              2.937870618626005
H              4.034889116354846              4.490064025896539              3.6076857437499696
H              2.7318324592350787              1.5926449788962636              3.1981958382732945
H              3.225474021931426              2.0208712060481386              3.363857986321234
H              2.735182236397619              4.568132191446267              -0.044359446443364085
H              2.6462976864178027              4.110825907131541              0.5867238726360426
H              2.1585436435720804              2.046682861295935              0.11686362515767282
H              1.6871033629682488              1.935822528831787              0.7533961304149887
H              -0.9999199983596369              -0.33831972165751834              -2.1440852761076274
H              -0.2968130514243465              -0.013561286165763973              -2.252979173362407
H              4.684063447323606              2.0602006376160933              1.132463213034032
H              4.681207506783751              2.350168858216196              0.4968462548567989
H              3.7837713427368533              4.403266279090219              2.76078004376353
H              4.006392019534743              4.506369334955221              3.4939252190393675
H              2.538105693861385              1.3790998388924134              3.325714666334295
H              2.91335308867721              2.01804434422675              3.4061790263415075
H              2.9361162145166064              4.467832691214207              0.12142354225363232
H              2.372861848564626              4.161459563009848              0.45187359613292244
H              2.0376767850061133              2.1262595155139805              0.1044000904942629
H              1.9379127548613133              1.49081286399017              0.506832397158409
H              -0.8971601672234678              -0.15695005001018061              -2.0583180690630325
H              -0.3902319643206842              0.1641911761849284              -2.4219532712580096
H              4.577843338359052              1.9967636329156664              0.970351438860691
H              4.300760637404215              2.492666981995771              0.36673461950753933
H              3.846897963263307              4.75796033425006              2.5752310060886665
H              3.9851377487395334              4.39793544578905              3.2810023492149547
H              2.3990342408262118              1.621295845967587              3.459759889589381
H              3.162116847725426              1.5228354680320961              3.4971881393078434
H              2.669492236672658              4.513911176659328              0.15276985854605177
H              2.234109610380519              4.233365311097794              0.7274866694053429
H              2.021759559878348              2.0532881819537656              0.14869782781222743
H              1.6822871518640958              1.6949174287107136              0.6554183162720854
H              -0.9005707941762393              -0.04708907482085124              -2.0254273328157417
H              -0.40599273082281456              0.1358782652288618              -2.486935401091735
H              4.646939215406387              1.945816236445557              0.7874959206223819
H              4.368825480316559              2.611439208491309              0.394371406605056
H              3.8155395347989973              4.698905317044142              2.576838060396198
H              4.191901135479971              4.482290146885093              3.1960209690886408
H              2.514253417588307              1.4041084378245472              3.3084826414022106
H              3.298842118553869              1.6183529383589648              3.2803891887689414
H              2.680965891589319              4.635873959604022              0.098104107935465
H              2.272843818087026              4.7512922471167105              0.7223601299448335
