72

H              0.8387170831374772              0.9477311836711303              -0.4102402973099729
H              1.5377124780324407              0.7341721712380719              -0.5745251657656697
H              -1.210787221638742              -1.7946922496898057              -2.425808312975184
H              -1.4619279855581135              -2.2038004573042724              -1.8607642693871658
H              3.5100580111924384              1.2549875923934526              1.1609858958334218
H              4.125463305488326              1.6592416872976965              0.9042162636102393
H              3.947473940462481              4.26274073802503              2.3765295537197066
H              3.965026800311196              4.0903078940469255              3.04087613220651
H              1.5300882096691557              2.206349167148509              3.026429795761442
H              1.9691752898621822              2.091828044251351              2.3585629870665525
H              2.484067844195788              4.014185853989586              0.3207416625220879
H              1.9330539526140602              4.219000512770385              0.6961238980468515
H              0.8280647303828125              0.6715580830553829              -0.7038997909534469
H              1.427850394071727              0.9921898336064997              -0.3186844879129143
H              -1.449352326704064              -1.7138346261594732              -2.2898241824117664
H              -1.7205374355913978              -2.341447354458715              -1.7480479928172605
H              3.7873914159545286              1.0945187597570138              0.9476238639108975
H              3.985345828340691              1.8026921884329716              1.2417117123284989
H              3.7395989963308156              4.030526102235429              2.4724499783344465
H              4.125015962992584              4.237168350312704              3.082083351052327
H              1.436105584747139              2.1356521458356648              3.034266194731187
H              1.6034221902078967              1.9125077004512279              2.3792362960521474
H              2.5820587320224684              4.268646182828905              0.607036517777186
H              1.878367445636552              4.0356188155219925              0.5967657874610963
H              0.8478765394208806              0.8659279298426488              -0.28947367270551444
H              1.572694116063313              0.8327285548437481              -0.2989092300729657
H              -1.5716209608533744              -1.8418478150038076              -2.3687708744251355
H              -1.8266679869634619              -2.079080539848284              -1.6403057200483337
H              3.512429896866388              1.1848711594127954              1.167321715588435
H              4.104780961367425              1.567853376006137              0.9511617357771925
H              3.926468478739509              4.228031775918136              2.4440773876921815
H              4.030050450376147              3.8907963088389974              3.068510320610338
H              1.5676085626613474              1.9186303227943227              2.66816582849224
H              1.9094606631639173              2.291796463664459              2.1182571524987104
H              2.4046230543281855              4.398813301038978              0.5460815173188276
H              1.781071480686488              4.173190589594645              0.8159206758221523
H              0.7507769928998603              1.2132819499265959              -0.23460596551428764
H              1.4555728163470307              1.172516701765972              -0.3527162230034402
H              -1.3953089892481403              -1.7223566461757773              -2.0608535919901443
H              -1.9294034218060525              -1.8570986554294464              -1.5863026663533677
H              3.478614584108767              1.1120401797036694              0.9590477417167134
H              3.860058730395849              1.712206432591413              1.2346980543589816
H              4.02040172920165              4.11335867204504              2.4239867958130117
H              4.015731302571894              3.935734908034461              3.165713372417935
H              1.3301211205864847              2.1025667357773434              2.757743603155379
H              1.8860904843565598              2.075534137089099              2.319673055576927
H              2.380617167932923              4.0977141052513995              0.3466856099611917
H              1.6942650817421845              3.9190829921798964              0.5634985329702613
H              0.8957453395520706              1.010833724489587              -0.6014252502579336
H              1.5420511728165271              0.9398854821040215              -0.32413264360227023
H              -1.4568718518235158              -1.9521257457776302              -2.3707823708711673
H              -1.9860146381816335              -1.8911674675477654              -1.8374045182291707
H              3.9874992208825693              1.0687949230876796              1.034362231912738
H              4.3924044937604645              1.691066254824137              1.1674962675033653
H              3.774510225577132              4.341653915015384              2.381063608271416
H              3.860900536646922              4.174130555939361              3.1478522124963413
H              1.2847900286251475              1.9866394370398466              2.7295170414568157
H              1.9464266211716872              2.1393432572995255              2.3884408418779053
H              2.631177806745996              4.0204445819329395              0.1864206901630845
H              1.8694030638995258              4.032029141939156              0.199522095073443
H              0.7847107317263146              0.7205200724544801              -0.3416046169341442
H              1.2356129195301486              1.1148361368752024              -0.7569737565686535
H              -1.3865851736210941              -1.968037744994306              -2.6486675296739497
H              -1.635838419407383              -1.842129438346671              -1.9810721745459272
H              3.798415638135897              0.9830097702296682              0.8683600824762993
H              4.249654500591953              1.6109747610971465              0.8398891026913097
H              3.683903638953026              4.23342615743779              2.4572747068647636
H              3.5288732902989812              4.176465427199357              3.199113334915918
H              1.5944059732256597              2.04328953280876              3.0702089046798804
H              1.5946639015194684              2.301526868480359              2.3003737110262255
H              2.331892229710932              3.9501438140052554              -0.23437123592826256
H              2.019984601111695              4.01110108603104              0.4275981273812346
