72

H              1.46633012411168              1.5900734945015051              0.17371711732020226
H              1.4772090677703105              1.1271574777472246              0.7887897826557017
H              -1.4275868440316632              0.020538789909423424              -2.039530822830208
H              -0.7738982068875333              0.014629699677142042              -2.0289254419648737
H              4.325674712029079              1.6890989919868429              0.4290074674956725
H              4.2955622605287465              2.469656663667716              0.3872653644120827
H              3.5707478728724613              4.011555910907871              2.58608602782408
H              4.028738562708314              4.512904188454953              2.8622131401798754
H              2.061610788694136              1.790548911006144              2.7004751855254856
H              2.6203249869541576              1.5571932348948068              3.2177680266612065
H              2.2019329201526805              4.037846983010532              0.3737555444576043
H              2.0215948647575313              4.484403857774471              0.9278593122903279
H              1.5038527838298346              1.716249906241128              0.3292627167253532
H              1.130936031872614              1.19324430856544              0.6268067484380317
H              -1.421183284053584              -0.1318213678790163              -2.3490624109044496
H              -0.6529974652981089              -0.12074951742479571              -2.1693735975938218
H              4.132774370369425              1.8336767176895286              0.812202826709391
H              4.682278471946018              2.292201671548897              0.5374151458612834
H              3.4244860828137615              4.042344135085151              2.90692845809935
H              3.923243903850436              4.5584974242842335              2.973596799171773
H              2.220635210978758              2.0693907112431487              2.4362555236021843
H              2.52135729944797              1.580066160584157              2.943709165577617
H              2.4194780976623305              4.21469967550132              0.1601135452518879
H              2.0844026609286863              4.352469948235825              0.8063869226648767
H              1.7114860768423643              1.6540897298399269              0.06800283144416998
H              1.2011869815353382              1.2775100186008659              0.5825352343848682
H              -1.1068712123194901              -0.33108549185826563              -2.310058013391015
H              -0.34827407456248416              -0.008714648463073836              -2.3035262111325925
H              4.370268706126271              1.7500580754657276              0.8373126409188485
H              4.583433094235747              2.507424183054836              0.6374937632497332
H              3.529934976544567              4.0290559779598505              2.828458705777474
H              3.8215450302245717              4.767767157118564              2.9222495372478527
H              2.0336013661588597              1.8510060975456137              2.514446396375816
H              2.4668473342082677              1.9003027946292235              3.151239466441456
H              2.4721555902520675              3.931060071902984              0.17245853322209787
H              2.0839872722931148              3.893768603787549              0.8418052723327734
H              1.4618959467755779              1.9755318886403115              0.16486078777711038
H              1.3131262799090007              1.1934093898480629              0.38457843363445265
H              -1.2098066689124745              -0.2310767877359711              -2.3771671601490416
H              -0.5574579615493305              -0.29325020714814376              -2.2346532456092287
H              4.641081043022186              1.7737755079405302              0.6213932095218987
H              4.660468752780864              2.4656089333320854              0.3870147020484052
H              3.5633722514573796              4.296346308771166              2.8720042319634596
H              4.089848085918524              4.745380210293635              2.6625111471074345
H              2.5072714408574255              1.6038082904914348              2.642016733068538
H              2.310513560451913              2.162928852676513              3.1993651935995984
H              2.566116109974572              4.049727644966651              0.5592420348437531
H              1.8652066424088298              4.257381928106978              0.6807158740656095
H              1.571139420489586              1.9189074868240104              0.11444223834886835
H              1.342778526059321              1.2016822240708467              0.24257165322614466
H              -1.4295003965899997              -0.2023037553473502              -2.2569346614994044
H              -0.7224969580572491              -0.4632602729919211              -2.264264147310422
H              4.170635635824002              1.8047768581913435              0.5136293013067501
H              4.564151155314326              2.3750547932852077              0.7886306862460545
H              3.504187913873016              4.031340439768648              3.0743958823940143
H              3.98732202996599              4.521351802826815              2.7611757059465765
H              2.0945085226173226              1.6649063404086217              2.6771902247820023
H              2.364729694695294              2.085779787441063              3.1543217653595024
H              2.3035649555751427              4.29020755235351              0.48464617962719525
H              1.8130671098070188              3.8675201488793847              0.7943261032880212
H              1.4016009754418324              1.6250741926343273              0.07847883165882925
H              1.5861982601213571              1.1749251388925748              0.6310320673510686
H              -1.4045872949950942              -0.17178865594959872              -1.982332564954058
H              -0.7043412929357673              -0.2919753639107855              -2.35933370264585
H              4.401173835559305              1.7056758925530238              0.7776179427182747
H              4.53750786127895              2.4393692473195707              0.7480091778401049
H              3.7509503276770766              4.033020644443394              2.4565992381313526
H              4.078807056406256              4.475293603375659              2.934327711003173
H              1.9561507223541124              1.2917137812004291              2.932756706932772
H              2.4444834259245165              1.8841319946112907              3.105727755055894
H              2.126730294433981              4.139583830967296              0.4652954998011223
H              1.9300324457900504              4.330575648633631              1.166847157305689
