72

H              2.204364156087291              1.3448642682112633              0.9910537160778338
H              1.5728629085136088              1.7310168667627353              0.7844847420735389
H              0.4154800334515318              -0.7726654564707642              -1.8558568374017625
H              0.2890099752259349              -0.009326800003927606              -2.0283322360097378
H              5.718007655980711              2.6848464390095903              1.3358902874582377
H              5.258746554834165              2.0204866869462204              1.2571862823438005
H              4.026850999796253              4.99825532289626              2.9658050861832286
H              4.38955578828542              4.436565589905815              2.9041987728427703
H              3.1219348204373842              1.5171298280741525              3.120456648492414
H              3.410105370586569              2.1277811070237433              2.9706665759576842
H              3.368429637725836              4.150284503282866              0.36781493055969094
H              2.963161019170234              4.608060020674429              0.7535012404897828
H              2.4754627305082586              1.3733429007353735              0.8275231036146006
H              1.944203288976759              1.831381380023531              0.6559007772931594
H              0.37235326482975584              -0.9045854399692546              -2.0070771042272697
H              0.19461322315335267              -0.08782228641984344              -2.1295361961583827
H              5.402586130424913              2.6139694389103743              1.3029135087577115
H              5.254291748549615              1.9550342517849657              0.9064941339025546
H              3.813192388214356              4.728641268679255              3.1276134782559555
H              4.290828208865136              4.296051321723643              2.7939929502691965
H              2.9854290254072886              1.3499254529744535              3.27790256970967
H              3.1646327090030577              2.0411623883633245              3.194013970458722
H              3.174799793361382              4.050609218327058              0.7023612724128905
H              2.594161076022721              4.47770749267896              0.4111750301419685
H              2.405130089546937              1.4424000575605995              0.8940291075324015
H              1.7145750197924423              1.7456646716494189              0.8884455013197702
H              0.4687187886007142              -0.5893465595017332              -1.7618596350700229
H              0.32881596519624134              -0.08924876303777211              -2.2271960907808737
H              5.593954962195043              2.4564276601449357              1.5280190597587284
H              5.243556288587371              2.002971863844862              1.0750720315053506
H              4.094653150824695              4.525288289875709              3.207956129051679
H              4.244912053293158              4.252933750973994              2.52749878653665
H              3.176030981588703              1.2930235363527414              3.3836528528553655
H              3.26895413540639              2.004635481548698              3.179837933958242
H              2.8026338332060283              4.163371158390254              0.8619923973871774
H              2.5683360646163322              4.697336416511515              0.38735820456618986
H              2.2499938616589668              1.6758099426687012              0.5592569052800861
H              1.6961849173066668              1.9050965397831505              1.0707813190163418
H              0.48857028840741923              -0.43559626491140957              -1.750236785618438
H              0.40305927591479973              0.19253750133404818              -2.048105532167928
H              5.4457550616313615              2.54938627538952              1.0648345006215485
H              4.9481403627685125              1.9934334597328693              1.0985233381645378
H              3.922208476284839              4.490275823565843              3.0872634397366987
H              4.302793249800517              4.19647644393329              2.5640574694449336
H              3.7913437281707654              1.3921993459318522              3.333904995526751
H              3.15053648781491              1.7324704351724418              3.2192855052466367
H              2.7829232374873283              3.9830487493164117              0.5593889909218714
H              2.818075467319313              4.70772977818866              0.5006730369144654
H              1.9531614729845528              1.5939003486294088              0.9449069471721586
H              1.438033213785431              1.863897414925611              0.4904267300313385
H              0.5237186061515957              -0.5130051645815696              -1.8335447337026929
H              0.6842493062829552              0.2752333187215823              -2.0041959869685213
H              5.341633057230096              2.4143493726997822              1.5049580908439857
H              5.000964027703695              2.0051950450708125              0.9342721754584495
H              4.118860691244034              4.817934306463475              3.129533179742798
H              3.9748151917350287              4.1526538215158055              2.8111619243194492
H              3.4447560174876264              0.8532546305152633              3.247576116903094
H              3.419293704940301              1.5830488998141121              3.58371127374013
H              2.9444560901045223              4.007151878873439              0.5790074055672028
H              2.9808605282959735              4.734038018917987              0.5866089633680787
H              2.141306067724115              1.3650658910871323              0.8567120162947293
H              1.5060585655067509              1.7496739266767565              0.8979822762378908
H              0.9219895716787057              -0.6382718710436074              -1.7693490261063618
H              0.6138535905209903              0.07428070304656104              -1.8335299391503774
H              5.62758238520984              2.504899861513602              1.4434205599782282
H              4.910648026399006              2.056917054478907              1.4133541020349116
H              4.271201366442393              4.816036439718944              3.19191691435961
H              4.200621016107951              4.317631380889081              2.719218874787354
H              3.3131637226031163              1.2719292672994928              3.511409012414536
H              3.1928041819318045              1.8931099431564968              3.0469685418095858
H              3.382857097450038              4.092335129928292              0.524667171479497
H              3.079910854179864              4.74218151130948              0.5739543108552119
