72

H              1.7657919658020504              1.1959291914165329              -0.5033293441321985
H              1.2725006213669745              1.3058293038853128              0.07499420479768737
H              -1.7929453917273543              -0.8282696544841586              -2.398223454051166
H              -1.364816544942322              -0.8402788591980473              -1.8190134158735667
H              3.9059977441601053              1.7750133660713585              0.9148321367110195
H              4.6018240818233895              2.0697054260290986              1.0176913201454236
H              3.678525591743312              4.21645083434128              3.136843496044469
H              3.9323526102629165              4.142077129656353              2.422732274144617
H              1.3055309103703756              2.1316435189152627              2.3191277694263275
H              1.7951939755197568              1.8214475789045037              2.8351171491581795
H              1.7611912685355975              3.8984319044688434              0.30975511016503815
H              1.4626060631618214              4.0731938212578225              0.9802265289440069
H              1.9095887579308108              0.941061032524255              -0.48643521225543485
H              1.4840312766026582              1.202195754331776              0.05158470092947487
H              -1.6728704130260055              -0.7201230598163865              -2.4867050785038938
H              -1.1854582049615705              -0.620673693947568              -1.9131487422357625
H              3.7376471649106566              1.6831539393983201              0.75218986429822
H              4.306315521473885              2.148630435285154              0.8467491719914884
H              3.742863821515677              4.406580628015859              3.1838677256243484
H              3.887448959330005              4.393830354761628              2.4300909737095515
H              1.573330706313577              2.242427649204667              2.4345944187441404
H              1.9318821339253276              1.8129116501150977              2.910608609365741
H              1.6162910467971463              3.541343090017257              0.20648235138969925
H              1.6025946196238798              4.03468350364573              0.7553735809568052
H              1.839873922051843              1.0235311513996355              -0.25310626476735043
H              1.1354592233467533              1.0780975326703632              -0.11406491678991777
H              -1.5689186051198636              -0.7696280038640418              -2.5564442898586073
H              -1.155751175493126              -0.8506015091419524              -2.029565906623409
H              4.1466405397338555              1.6724113712573878              0.6657039278303074
H              4.494270072137127              2.3241945663364976              0.7093767576420319
H              3.902682028385507              4.706824858131288              3.1062080985265808
H              3.738765973390181              4.342430790223152              2.516642031020773
H              1.6093218014305712              2.254955424762118              2.3425674119553004
H              1.8296081471473085              1.9158357195492397              2.9128203090435036
H              2.0504515610773013              3.8064849245891503              0.2876425522447104
H              1.519164134832505              4.204707989979655              0.5940764843236496
H              1.7519255969113388              0.9959353176940221              -0.5531587218187547
H              1.1602739285439145              1.2489117633635336              -0.3251478148612752
H              -1.566591831827559              -0.7218888152381602              -2.5390124933023395
H              -0.9551037994017725              -1.0706409804849342              -2.274483991936956
H              4.249528185966741              1.6543098296440857              0.6733282524080918
H              4.48683703699611              2.3604460995079903              1.0654596013171729
H              3.9854209856390814              4.376307782139921              3.259724160819907
H              3.600911649454094              4.348736814700785              2.6425742244330883
H              1.3291988947344127              2.4003436783980905              2.4921418759983953
H              1.8775977501839884              2.0024700726826876              2.8917093412200683
H              1.9400319040311944              3.681803715369404              0.2143457088805778
H              1.4882776251836154              3.805404816540504              0.8293141711188081
H              1.2861736918788693              1.5689293937580702              -0.7185642521173851
H              1.761768525353037              1.2141494898238658              -0.20450795308827893
H              -1.5300572708238662              -0.6439949833389158              -2.258217313060874
H              -0.8489590321327146              -1.0153812221860454              -1.9590769132058126
H              4.129275845699734              1.6924450406246963              0.8008817585178656
H              4.266915324651705              2.450684251467913              0.6547827449843648
H              4.07804061660559              4.182429977995675              3.0610993014601324
H              4.147108207282136              4.37676584717434              2.3564153384156223
H              1.5603254549604526              2.1341815633402152              2.601317478576178
H              1.7510689917581137              1.817900827618599              3.355582729969513
H              1.7760185492891796              3.7667611820710873              0.46651634067484854
H              1.4537776126876096              4.175737527954539              0.953273113915671
H              1.8370868268000278              1.2588351979320036              -0.5057733735549368
H              1.2454391494450816              1.3395850178330104              -0.05815061083201617
H              -1.6483595054606013              -0.468913571252392              -2.1690813869911536
H              -1.4542157446839963              -1.0802784594634054              -1.702922076586343
H              3.8228689395188926              1.7886870589591994              0.5750745533151211
H              4.076754486656227              2.2852453852621823              1.0559301303256974
H              4.05269539322428              4.196575254697986              3.151090683167215
H              3.927436208770769              4.0451826700803935              2.4360959936852424
H              2.005825723278766              2.268792197801189              2.73970065543382
H              1.4093565412585578              1.6905124810303043              2.8380827072252592
H              1.9438623004028097              3.8657058117158374              0.566345590264555
H              1.3465012712099502              4.141687304393615              0.9154723846820546
