72

H              2.291215682103199              1.6232352868347553              0.5864194578989449
H              1.6400395553964              1.6956363961473744              0.8666065433759073
H              -1.2204588352062435              -1.2078358107867413              -1.7166137420851368
H              -1.508461473821207              -1.3526145860713747              -2.4056303890272397
H              5.090720425755642              2.12091828200129              1.3900834230604062
H              5.220332694523873              2.5716393645908933              0.8728914354670253
H              4.533643856574495              4.905436727486085              2.705652020574125
H              4.4880123756448995              4.147114217132277              2.9003023629269937
H              3.1085585413245544              1.4251201310594268              3.940544321470551
H              2.7981430503722793              2.2062985907789305              3.561229618523043
H              2.9765390312380102              4.595097602499496              0.7353850240611013
H              3.0033988567136443              4.089239566483987              0.21460918827018732
H              2.2461873237092984              1.1407746356926212              0.4788315363649395
H              1.7145322773258158              1.4955634320694875              0.8342209962913681
H              -0.9304232181260326              -0.8824984368575562              -1.7651958571509505
H              -1.1468738579765185              -1.441877630914638              -2.2274263422684593
H              5.061335821836555              2.4149459749145024              1.4328806971248955
H              5.124147458358133              2.5424321073569986              0.7291524989007436
H              4.4808343422728765              4.897331463224192              2.7519077054291197
H              4.524360429217287              4.191666547532999              2.871889340539352
H              3.256646524450851              1.8812873755329225              3.874798153470062
H              3.0014842854679364              2.3668983924614087              3.2348698180189595
H              3.174040363989784              4.407551830534684              0.7011605234028679
H              2.6003673979502824              4.315338133425591              0.2716705271149203
H              2.0925285340567514              1.1324579759731779              0.7930089557200442
H              1.835916422004112              1.766378258336892              0.6370625118699429
H              -0.951658603294322              -1.1767165679359706              -1.736509521858094
H              -1.0311739609007426              -1.4653990317995491              -2.3629530769103395
H              4.8917917032943015              2.553873995461771              1.2589396479110972
H              5.16064109906943              2.358311339916186              0.6416395414987223
H              4.14327002465998              4.9360576390942885              2.8104312195620693
H              4.445250345536625              4.261708490920535              2.853787249380769
H              3.415242451855849              1.8329495045653479              3.767305079512416
H              3.0313128126145568              2.1531347735497723              3.2170317252829066
H              3.1603791431799806              4.738693028466019              0.7173051167377688
H              2.7580662136945175              4.417851044334796              0.21781161418356054
H              2.42294584690725              1.212690005032595              0.8541391014386149
H              1.9753189529594604              1.5000126839032537              0.3657789044764103
H              -0.9959420432669764              -1.3571547010890297              -1.9865865154149103
H              -0.8886666825928894              -1.7579801221753977              -2.54721795348213
H              5.107912267142357              2.1331290168535704              1.5168596647313792
H              5.190165727447937              2.5009903825443494              0.8296101134794359
H              4.186006740341565              4.767866814402814              2.9050748257784895
H              4.250034506452241              4.022267333342835              2.9510213141555126
H              3.1371287680697564              1.7783666916372334              3.8586469551458267
H              3.062006183108772              1.917296237146331              3.109975913137287
H              3.2020243997333826              4.438344601275886              0.35301585894771054
H              2.5849759379419073              4.151270765847526              0.3254874558080998
H              2.4201871413163296              1.3411536056324662              0.7707315953437613
H              1.993268877480268              1.9496679155164858              0.7937210989398196
H              -0.8501336180639104              -1.371111940916077              -1.828334582390013
H              -0.9987247692609997              -1.6716767395179768              -2.5427209359931604
H              4.8839651819735455              2.372098505472179              1.4129212375535298
H              5.327818559013013              2.733606791651664              1.0378896207618549
H              4.569887099464701              4.732221301531049              2.8556083281037155
H              4.645116436378729              3.9612059498103096              2.9435465761483255
H              2.948200446060235              1.471256210960388              3.4774317762818607
H              3.1905772112781574              2.171608445225449              3.2664080725967137
H              3.1600844677014375              4.560759073738086              0.5154809154159635
H              2.4874480317142984              4.210900019332438              0.5384099510771516
H              2.170300159873529              1.2780577009613008              0.638744530024538
H              1.8971976638243004              1.8144996945396              1.1484444692862734
H              -1.1491387604681322              -1.3460162180141217              -1.543112639003754
H              -1.2718339337373317              -1.5005900386608186              -2.297034080900936
H              4.924946713416756              2.3296659286040904              1.1798969827296095
H              4.857115007299197              2.6246586746260716              0.5095834366400164
H              4.658104785921648              4.590088110489959              2.7386134619822737
H              4.5683960350209505              4.1125929157720424              3.2954590876178296
H              3.068671609306076              1.6943146873890171              3.799492910858135
H              2.9128092636008702              2.2192568447469645              3.268478084616256
H              3.0172013990809714              4.713797499953244              0.6765787909396697
H              2.813981287529883              4.1880002076128875              0.15583672970199025
