72

H              0.8263309134168597              0.9629920708073055              -0.41047633067972905
H              1.555320252123023              0.7314717330682833              -0.5814433926297832
H              -1.2196478728290197              -1.8276264046075787              -2.408383943675611
H              -1.4623951391588659              -2.213496022037326              -1.879663676595328
H              3.508856562927599              1.2521458160552659              1.1700997558502126
H              4.122786702837693              1.6287885193845661              0.9455115908543146
H              3.9377095736592937              4.244388768035942              2.3879608830132435
H              3.943450188682617              4.07716089696367              3.0473262692018563
H              1.5124986050910887              2.1988752582774027              2.99538036367731
H              1.9772752055814504              2.1035049630551157              2.3700651347066692
H              2.4908530038260697              4.010210481054354              0.31657214951511214
H              1.92043998875154              4.200088775605319              0.7013651080687596
H              0.832108014079062              0.6745856933356978              -0.713194446017808
H              1.4029293805837268              1.0214014260350464              -0.301196345524688
H              -1.4623401346869858              -1.7268276169943317              -2.283145121782722
H              -1.7198375412003626              -2.3518136227475535              -1.7611077352821236
H              3.779977623365194              1.088377381408967              0.9696575072283139
H              3.982614499957002              1.7826616416718166              1.2290464431759067
H              3.7253088761900073              4.058622893156914              2.4706586211744885
H              4.133846420175717              4.2463362617213996              3.062478215332169
H              1.4601630913035195              2.1323557017651225              3.042977951885133
H              1.6005672099130777              1.9100143664819242              2.3704741092271404
H              2.5556698987305575              4.257736398434448              0.6243168823101185
H              1.8784832761333132              4.044955566901099              0.5766645142608662
H              0.8442393603951697              0.8900817013448994              -0.29649112793402216
H              1.5758745507275573              0.8057936899809981              -0.31768105896477045
H              -1.5903397564850101              -1.8377590161214836              -2.3783787772532348
H              -1.8541231530211695              -2.09149817260659              -1.6607186230951971
H              3.514832091728201              1.1804173603113028              1.1546952234280858
H              4.091235981076791              1.5587738222963938              0.9420604327978471
H              3.9183194802904904              4.236746010595293              2.466845470440705
H              4.034395553041627              3.909256436958542              3.0585046133521026
H              1.5756139064421018              1.9033946005181785              2.6798706863307213
H              1.9143503493225695              2.3130400545197602              2.1025942920369887
H              2.4064752228865656              4.387789861680098              0.531632848493284
H              1.781762581680967              4.1984887913333795              0.8141129445052068
H              0.7375967534521667              1.2089132924228652              -0.20862366258637857
H              1.4387546933746627              1.1421268369564255              -0.36223930281223987
H              -1.384913641219523              -1.7299317598094555              -2.057738081235896
H              -1.9061086003790033              -1.8599966878177918              -1.5986123163293906
H              3.5170805810148384              1.0875936516307076              0.9473368864161298
H              3.879143325119088              1.7200877012568243              1.2555928974095836
H              4.030873288893158              4.08847152203269              2.434896305569769
H              4.008456807204269              3.9503625750333082              3.1745591955801444
H              1.3292900932102982              2.086859056468598              2.759665526170647
H              1.8343714276146366              2.0860499572345073              2.3271186981701057
H              2.380651445256933              4.127409609837332              0.31891159893302723
H              1.6956994507599057              3.913105648243121              0.5717365786732296
H              0.8940359634152535              0.9868362603312505              -0.576503287976293
H              1.5207727020736665              0.9471879039648635              -0.29463803028485797
H              -1.4185916689995504              -1.940602410637187              -2.3716743125495836
H              -1.9771006691396626              -1.8916717547543551              -1.81537462086754
H              3.9904935241859043              1.0775019443433769              1.051020135730673
H              4.384087569039639              1.6928720440658707              1.1472912998092326
H              3.791908881572081              4.31545839941726              2.383751344721408
H              3.8783382627824343              4.186942936880477              3.142451149621784
H              1.2920547219208796              2.00906261739832              2.745340135710013
H              1.963237784854677              2.1129930265354107              2.393700543072719
H              2.6398314023671774              4.008556459868801              0.18259979409739097
H              1.8835455072704284              4.01617045981745              0.18486898699356566
H              0.7962817772917319              0.7176630886628459              -0.33523221983436374
H              1.219830121452408              1.1253911411247866              -0.754463304519694
H              -1.3716427458825442              -1.9942789048236687              -2.656020979662988
H              -1.6520200963408707              -1.8292938115697752              -1.946886747875376
H              3.773502492238272              0.9815267622819882              0.862423309585518
H              4.257730311356178              1.6305710902071926              0.8307515294746841
H              3.662575662646626              4.217658853050763              2.459359263294536
H              3.5507148390205705              4.155175828943763              3.192084762244391
H              1.6065376564477547              2.039220240542857              3.07077407388772
H              1.6092322889769022              2.3089850554848135              2.2820991123866787
H              2.366705729132333              3.9575283501466534              -0.23439784277036763
H              2.0306888946030557              4.014266373615669              0.42721946376845443
