72

H              0.9593901524227684              0.5987250759782556              -0.42320509156748537
H              1.513524215974208              0.9447660045743377              -0.11305954705140414
H              -0.9864123507619046              -2.6339302341092408              -2.0290401048055764
H              -1.7331638827293467              -2.9165602361613576              -2.090927277393993
H              3.7609220137383828              1.033544633938567              1.5157920203362694
H              4.457913141716931              1.262896699967953              1.5019350098658297
H              3.699176822554477              3.5752101563468717              3.208071382115518
H              4.244419675919071              3.994723443829445              2.9804887810986305
H              1.5328943770722867              2.078727842894319              2.2129298743490016
H              0.8909114507897801              2.2435652802331827              2.6019143805856846
H              2.7106550782645735              3.7091604233590507              0.04832344837855108
H              1.9935478359235481              3.715564611687487              0.3895139275432885
H              0.8362866815672189              1.035010769291917              -0.4499494735453221
H              1.3937679948248218              0.6223789813963707              -0.25483805323445036
H              -1.4359259887834643              -2.434422083028821              -2.224856316222698
H              -1.878831089310447              -3.0787771896100016              -2.307575736590913
H              3.830305998253831              1.0357685565788861              1.5537847909146063
H              4.490831336659457              1.2349069304195248              1.2675280163719687
H              3.6264305999799666              3.970474873048843              3.195046773998386
H              4.232201571135867              4.257068435974477              2.951735180328785
H              1.6495175610375612              1.961828314541998              2.5697690287266663
H              1.2553389390458312              2.5102715460389513              2.429910866952245
H              2.6270503267689302              3.6900922321568452              0.0364066811562118
H              1.8771607207231082              3.6219750086345077              0.08770793484490293
H              1.2470802209172118              0.4072449202155103              -0.6358464133170897
H              1.1589613577982134              1.0701927993385043              -0.3088311201672538
H              -1.2947807335496204              -2.43523115204689              -2.452610017945166
H              -1.8952222198855697              -2.7692019323474764              -2.257752461418197
H              4.02874976235849              1.1616515277809116              1.3524812344523978
H              4.560991438468558              1.414720523418544              0.8845296623808324
H              3.6241847911030978              3.889013812302273              3.2307268476267876
H              4.175168795145393              4.228008989937385              2.9493869959270156
H              1.796381421913341              2.21065615361596              2.3493902339823687
H              1.1120447216267055              2.5800011348239855              2.466061080048151
H              2.653691330234125              4.1929363677897475              -0.10425499522878147
H              2.1175030962658954              3.7524022315174124              0.21348068332508485
H              1.4938805075930182              0.756576257336204              -0.7088864206484148
H              1.2148111829569215              0.9731048166474423              -0.05986111259551827
H              -0.8901583653432121              -2.3047087424008854              -2.101745424958007
H              -1.5421147026619786              -2.6613613808433665              -2.229728409222236
H              4.144728136659631              1.1019000971436523              1.569370027032435
H              4.509258356762084              1.4518172720867026              1.0192438588032668
H              4.0549988202270875              3.463208751318219              3.2606125573441367
H              4.22912757525228              4.150377429739432              3.061562814379621
H              1.3801936371216237              2.3278007909696914              2.8835251475838097
H              1.1911963994170296              2.4790887068251495              2.208253199749926
H              2.8859204283850244              3.8676985104789168              0.017771458128040353
H              2.1455252523615638              3.6611058659899745              0.204429283518776
H              1.114590850313658              0.6939211965519483              -0.7144253158656368
H              1.480270121248413              0.9943298025091029              -0.11641101750441026
H              -0.7999869160643986              -2.5539123222882196              -1.9215715092539423
H              -1.4640625340029032              -2.3985192645884497              -2.074372619793329
H              4.162603455067779              1.1856174245425144              1.5614723166182267
H              4.304059275078499              1.711291504183565              1.0690595752346166
H              4.0709437377453455              3.6941187224448484              3.330475119127118
H              4.340626313108157              3.9128395757579884              2.6993320759143278
H              1.5672777877851074              2.2883415649651453              2.7463318758783375
H              1.3278067324125205              2.295505663089329              2.0614556122496293
H              3.0450454741045516              3.846119837821372              0.05584791837856036
H              2.401745296646454              3.5448843246832586              0.2680242914322637
H              0.9633133091792541              0.6531068123628415              -0.549568853181185
H              1.3171819593865122              1.2775742296297312              -0.28816545006321537
H              -1.0079511486966297              -2.654296226185659              -2.055479806837495
H              -1.6921695727562613              -2.561107980855749              -2.1675451794099776
H              3.606394408749685              1.4114978380256318              1.4251795720581106
H              4.277846016214841              1.252160069857226              1.1323354071926244
H              3.79368050501391              3.4709033524920825              3.2860839378145914
H              4.327760416958693              3.9489626043888926              2.969930165272532
H              1.6990514806829122              2.0225485989819068              2.5262532127104835
H              1.1793047842009532              2.341726457536721              2.074383972084682
H              2.9369099009182666              3.6209038622449077              -0.09152185364665466
H              2.4013740592637647              3.664972479474766              0.4488060299566435
