72

H              2.197869488355474              1.2776274267337597              1.2202754497407875
H              1.6193965258589087              1.4410556080079369              0.7500637173254404
H              0.20475765967846815              -1.1452276055310306              -1.805770123506709
H              -0.4259769943764947              -0.9532812768134102              -1.5149009469001324
H              4.772694768765055              2.084438641155667              0.7544192444705106
H              4.747582854880818              2.543571742416799              1.3356298712111339
H              4.07194210564175              4.557620129110214              2.5766504377238406
H              3.9781856038310117              4.921086535065987              3.2181303362151517
H              2.817193226915108              2.7444608338905736              3.836264491537012
H              2.5243237924812885              2.004498805156692              3.975207547084154
H              2.814604830703402              4.315974570113909              0.2931097375077809
H              3.4391747087350644              3.9106113430748115              0.48165248079403566
H              2.245099479396195              1.3113773048724209              1.1940929895857004
H              1.7394013410493565              1.4133231750273174              0.7330448234411556
H              0.2788602570668363              -1.1258253863619054              -2.1228164571079877
H              -0.25423128365413555              -0.8847007849202664              -1.6435604970409627
H              4.747843197286528              2.296444084813282              0.6703239851469586
H              5.1752980236010275              2.295808594505556              1.2127895029445337
H              3.6445184156509063              4.77272088090528              2.4228658830495724
H              3.9763166564326347              4.884078376405593              3.028248940992431
H              2.2973630086575296              2.37415487786346              3.6300212852174076
H              2.9715669387458785              2.343398284467765              3.883584254481715
H              2.642748626876613              4.385841311534598              0.6724203449334795
H              3.1061626539168756              3.7884717033625113              0.5275258684142111
H              2.4382886027169444              1.528856502244869              0.702877557178987
H              1.7995237029878923              1.3921080238295778              1.0051350542458137
H              0.6021882380131501              -0.9952421225599567              -2.049102049335698
H              -0.10673932485136893              -1.0499090149794685              -1.7129415173912177
H              4.68599272962275              2.1191507365951376              0.6238030447771277
H              5.045660657897958              2.42381324421771              1.2004729489464048
H              3.434814422058689              4.464949052039568              2.5106135320696805
H              4.051276237618541              4.677792072451467              2.9411995667317195
H              2.555036033970672              2.791934626827857              3.531448305300844
H              3.042130013570433              2.464912225969242              3.988706514566304
H              2.5004282844695913              4.362311386546142              0.536876030012659
H              2.928726441785322              3.8361349989378315              0.25562806829378854
H              2.2106240486016              1.7568163516217346              0.9927498160676583
H              1.7891983646806848              1.1722483830239616              0.8098472283174001
H              0.605483476914258              -1.1430266013245278              -2.2075447680788316
H              -0.08787223314469692              -0.7536181200645652              -1.861261596425943
H              4.7468964836514225              2.336488163837091              0.7824196372257538
H              4.943733552706985              2.154003944223154              1.5109733504629466
H              3.5537911799795956              4.580275332414157              2.464446119033462
H              4.1171346077379              4.626878847760966              2.915969067438087
H              2.906927633836992              2.412380761958075              3.4342412723763833
H              3.208409147386175              1.870943290793579              4.08362582355294
H              2.478371433528284              4.315044759596077              0.53353617794514
H              3.012788607564954              4.122630383714294              0.05914687719940405
H              2.1676391239718207              1.1789477986146422              1.1793093608803513
H              1.5857962402970063              1.4930482498162265              0.9104941065947249
H              0.7439037876634931              -1.1778789847748543              -2.0190506553382512
H              0.2831566596892639              -0.7477240246891949              -1.6218555770166347
H              4.873509605943257              2.1839711366162615              0.5840112103924255
H              4.9539214730649395              2.138908661117347              1.3430979240057153
H              3.648621922718527              4.369670183606692              2.829711024909615
H              4.305475591537168              4.549510638949938              3.0276163775376106
H              3.0126209922165303              2.163483294646583              3.364730702794398
H              2.903232065499462              1.8573091263667165              4.040379575602751
H              2.9167988539624177              4.643911820564713              0.4722588603319765
H              2.8059562056917464              4.043141528135311              0.0891678124259244
H              1.9828338835450736              1.474153210775751              1.1293503732014043
H              1.3272267569892984              1.8854026514073088              1.0056977117773427
H              0.549579877890654              -1.2676645247131562              -1.553809828581594
H              0.0016534741278917975              -0.7893568289981219              -1.5505080838960101
H              4.851415329623653              2.218751703400669              0.7272808295733509
H              5.164347976591534              2.1221807780797795              1.3431870745338967
H              3.818654056071166              4.406772099510766              2.838894906803016
H              4.484447011972748              4.722338925909997              3.123919885776313
H              2.663036875078582              2.491305218726624              3.6498116820717814
H              2.913612534667244              1.9225940866390654              4.152389050647953
H              2.9335654230531176              4.631780208120075              0.5758336087224496
H              3.2671651146962803              3.9803493741314218              0.3879742468056658
