72

H              1.070349125039577              0.6781505030809805              -0.4308063253023306
H              0.8651674452810321              1.0231512448923752              0.14614494781419773
H              -1.7229363150572028              -1.417951323972116              -2.603134963301877
H              -1.4446589254894944              -1.5555331737700935              -1.8744157386562104
H              4.152856302569838              1.4220703184279488              0.8935997076855962
H              4.573438679011452              2.028304125436924              0.8464755152639386
H              3.872227036594195              4.700014686319196              2.776514149268614
H              3.662754366216371              4.023957464922389              2.7350901609956546
H              1.0199038218495167              2.3932079615261745              2.7526718372708405
H              1.5402556475178824              1.8743597778340388              2.893933435440818
H              2.216264891509209              4.00372328920533              0.5069657842163864
H              1.4660353612077637              4.118736098487506              0.5852778240414234
H              0.9660203527828862              0.9608907943132535              -0.407202530883679
H              1.0782024540564257              0.7965246256638099              0.32621991234643677
H              -1.741587225973925              -1.1556087356570721              -2.4523163076065484
H              -1.556867536648754              -1.6012414719794836              -1.9468140245542012
H              3.4375587100355407              1.533474940257971              0.9945965292954445
H              4.015011822277811              2.0695152986549865              1.003608843066293
H              4.070411111827046              4.596692102833518              2.920920653269341
H              3.815966361500262              4.055685507163629              2.500723418522555
H              1.36589573005822              2.4566085577100143              2.8125141277793393
H              1.6777102109571742              1.8829783593947693              2.553015569346131
H              1.8555001500914998              3.7818957864861473              0.611951398419212
H              1.4361767596110149              4.22273194303203              1.067400892156253
H              1.253840825463698              1.0354866419292386              -0.499894049576144
H              0.9138802000276738              0.9516736843537836              0.21301478663883452
H              -1.7228639438717366              -1.021454277131239              -2.2530816958768725
H              -1.6636766936587521              -1.568016887611453              -1.761847467644619
H              3.7425916224491944              1.628879369243772              0.9314115634106336
H              4.006293492673639              2.263325483519629              1.2062499377881624
H              4.258609577916537              4.635669982460072              2.634472055455927
H              3.8970741333075707              4.024013768376245              2.610600497900684
H              1.3432165307727042              2.4018833535401924              2.7824152718955966
H              1.5240214472129643              1.7606799280842091              2.282348290422461
H              2.045681188417729              3.9480570550127703              0.7725836039265674
H              1.4284341737819433              4.225093713615158              1.068457837317653
H              1.089431813539362              0.854249860184203              -0.5986160824250923
H              1.1269285903833348              1.1030448542687985              0.09161180087023484
H              -1.7819054084196748              -1.0136444351598648              -2.4948853436975926
H              -1.6229999155943275              -1.3685157880348386              -1.8467708558236018
H              3.9776223812916425              1.6164270842235              0.7353674777235898
H              4.294798707358223              2.081391050640001              1.1933498100938125
H              4.217175773601404              4.473272193243669              2.908077258816026
H              3.637189800802139              4.038429091467868              2.727622587799706
H              1.2808006270528753              2.4177714938322032              2.6139332386250342
H              1.6805957905559923              1.949542007029521              2.213773739141907
H              1.9204247608506833              3.8349879052781675              0.3160249028702281
H              1.620855850325348              3.9814395586568248              0.9411256759808927
H              0.7610065348317767              0.9696316412454701              -0.3399565721303882
H              1.1732521369975342              1.4913494734066297              0.011489253755210887
H              -1.3949460922174888              -1.2185754224884682              -2.3550610984117983
H              -1.2827048920689406              -1.0462138010478175              -1.7202519519057944
H              3.8547196669067625              1.573820151468901              0.6381576947073004
H              4.292737278498408              2.096125698201756              0.8347790887748149
H              4.226655656207809              4.391482821835261              2.9749338268124306
H              3.8042319489007532              3.971288768687309              2.6559281413726428
H              1.2526190885960498              2.4281602756072598              2.5970325956360383
H              1.8118413554151125              1.9281172388701722              2.5377360778195768
H              1.8373760518904925              3.8578268590846165              0.11642950830160052
H              1.7053137681317394              3.995409575923641              0.7952299057865435
H              1.2969950551260236              0.7851088391580516              -0.36634836601819143
H              0.985941053650375              1.2994323820812737              -0.014294960806309404
H              -1.4051558426874546              -1.1789026712837405              -2.370105879164049
H              -1.4189609094207634              -1.4133029673674604              -1.671405759405995
H              3.9639611639214913              1.4879257904604766              0.7291646282941787
H              4.326663111109839              2.119023614477195              1.0584715888540905
H              4.217387152151741              4.463533488848837              2.753009051625647
H              3.670879307304548              4.019914360442598              2.9297119624434784
H              1.297754226275              2.2845940382587338              2.4072722717280928
H              1.6900169194697077              2.0583419667710987              3.1560193085479793
H              2.277511247509761              3.807781397889939              0.36624914548456206
H              1.579673412818351              3.8649040936365195              0.4971950115802515
