72

H              2.1667422672104473              1.7482778078553265              0.18172159418214928
H              1.7741148392583377              1.5174159080737226              0.7623909401666301
H              -0.7303569456479208              0.08236270803315972              -2.047683844851981
H              -0.19045994733641686              0.24583230274265666              -2.601756059171994
H              4.566126576069801              1.9631966222255601              0.7969448615100646
H              4.352283657121596              2.7216446329383794              0.6974102960985753
H              4.018633880063631              4.270945369439165              2.7194224962130664
H              3.8919779322349264              4.5123280655955655              3.407899580654488
H              2.9638445522897476              1.2524935944389957              2.946243847081152
H              2.7728271929997637              1.876807171899608              3.196149974601331
H              2.771110322474826              4.378148415057616              -0.04600758366316394
H              2.408981048661635              4.400472728320474              0.632147216786879
H              1.7732465266564488              2.062973286302552              0.4069604815470216
H              2.0079584858720514              1.5377963782491697              0.8846253293511196
H              -0.4839637167998888              0.1077684002436497              -1.8249503822633009
H              0.10147188113351784              0.3311324087422667              -2.309376693677056
H              4.835794018434405              2.1338576200046733              0.7453294405180776
H              4.5147440803657455              2.5542092687415106              0.18991098555239644
H              4.348459364449707              4.472503777892038              2.686208952620326
H              4.039861455866918              4.158763793675676              3.3189850348602823
H              2.9418674703630545              1.0722160195847763              3.2970977298965063
H              2.927407842906405              1.8436751472153927              3.276865066488648
H              2.754276097808253              4.515463677650335              0.04940281820207446
H              2.649903196883965              4.336346161044375              0.7707038994712823
H              2.142296807228845              1.8273213821580365              0.49292716397020464
H              1.5581260336659795              1.7465485616472785              0.932415848196613
H              -0.7950772536603923              0.04305415866814811              -1.8603105399231155
H              -0.05735143130115958              0.1502700980349777              -1.9494330065600112
H              4.419100078059402              1.902501563887366              0.6690174165783289
H              4.660685051208504              2.5978976071932056              0.37682970966150703
H              4.070811395209173              4.113489853000108              2.9370323655461545
H              4.033850327614116              4.483317370023121              3.6028810929567467
H              2.726405749319472              1.5821788007468731              3.2116042631788835
H              3.2129033742430466              2.0209340444282624              3.3637394765312676
H              2.7234228276609524              4.563469908028856              -0.03602799630596103
H              2.6466541277347293              4.106244181022926              0.5920009605367594
H              2.144703225861749              2.050891118280314              0.11811783416486456
H              1.6790302430015425              1.9431734896451303              0.7529053869709101
H              -1.0249432526704694              -0.3347664354342339              -2.1421580955788047
H              -0.3012874612478355              -0.009331503642525857              -2.2510692860814925
H              4.698252765659733              2.0573788434130034              1.1245902049101462
H              4.6840957421908875              2.3445284261670944              0.48886913201459464
H              3.77614969842596              4.405031810188464              2.7622908848258083
H              4.007746866356702              4.505006497292213              3.4844703195576514
H              2.5258627468733943              1.377252361151672              3.321175731016773
H              2.924721057292678              2.013334195049676              3.41775067866685
H              2.9368226103793225              4.455128664844726              0.12328632485559418
H              2.3640657753823446              4.173453328892829              0.4551028452827365
H              2.038121356936159              2.127775004461748              0.10420618238630722
H              1.9280666583677195              1.4992415655883196              0.48998393178912925
H              -0.9003399000187599              -0.15843824245871374              -2.0691454037367683
H              -0.3969304688618209              0.16968493374541316              -2.4168915819825223
H              4.55681203941402              1.9988253728734946              0.9711930911370594
H              4.289717075805269              2.486902966479325              0.36334853051491667
H              3.8319047336939205              4.757526117186338              2.5763448990460165
H              3.981186308893159              4.392245922336983              3.280716614768128
H              2.3895010510998285              1.6261355779738538              3.4621795831945046
H              3.166999788726274              1.5090013870023593              3.5041363196786253
H              2.6622932091616747              4.5132450860474576              0.14996913814849827
H              2.2359210417947497              4.229408773792815              0.7259192722758642
H              2.0224856736420858              2.042535074766368              0.15488516865511473
H              1.6661200233625852              1.6893205489811007              0.6523515523787877
H              -0.893282270536705              -0.04777929151844815              -2.0280263083495935
H              -0.40267897895516463              0.13529503398916823              -2.4899166523070164
H              4.642614735402729              1.9473618501787926              0.7993084074405298
H              4.364196813317817              2.6147719093791957              0.4098760739933864
H              3.8138174080040708              4.702408296153287              2.569805572019407
H              4.18981944916472              4.48978532271249              3.191212708660983
H              2.5243860875498387              1.399486285405207              3.3014762849886243
H              3.2863354634394026              1.6214591595812353              3.2780181277277745
H              2.6851369783011694              4.637881903693765              0.10114719298946505
H              2.2777372223032395              4.755532007970095              0.7287815013358917
