72

H              1.5280153224285322              1.710419438614292              -0.21288725984581983
H              1.2492454045600938              1.1700287439305952              0.3133923631676117
H              -1.3327705993787857              -0.32636253676216104              -2.3635042831467437
H              -0.6241976688890396              -0.5074461544930754              -2.5538189773741604
H              4.330451627774831              1.8186043458366026              0.764464220533032
H              4.7469830718980734              2.4743300633105085              0.8224158190567702
H              3.6930514275395607              4.016506494535625              2.9454945040766325
H              3.956220712618814              4.704289401335458              2.762310342726172
H              1.816087690914808              1.9530270820032491              2.2545670864398244
H              2.329993054840241              2.0650498616440123              2.7305532990845545
H              2.1759645651866237              3.9315327866062795              0.25658065954081566
H              1.7997184847775407              4.059332800391141              0.949133727868553
H              1.5145956486381165              1.4740487872978538              -0.23383558962233372
H              1.6570123689333085              1.2381493804609762              0.4715138200692563
H              -1.1969603883634856              -0.16388180079847903              -2.06329781586065
H              -0.5049818109569514              -0.3633046288278459              -2.102182603784458
H              4.3986994441722675              1.762606416274562              0.37820433406933107
H              4.390993302833253              2.4405720848440255              0.6132291783643435
H              3.9935106814269323              3.8232902129229793              2.8911667477561496
H              4.013847480133342              4.563982441272223              2.803386002218145
H              2.0492341173982154              1.8316047438035452              2.513268126164443
H              2.1762507778191797              1.994426377569286              3.2454792130165258
H              2.0116730543504575              3.746986315579411              0.30381722586815224
H              1.772262186312271              4.016596173098033              0.93962055136643
H              1.5047410649140474              1.657800434557108              0.1508369730890725
H              1.4532390681863694              0.9848218921143734              0.5329244210253606
H              -1.431301386882015              -0.22719267452677527              -2.133490997386269
H              -0.9806950552464185              -0.5681831355917542              -1.7750332229290333
H              4.255296168698564              1.655530430653936              0.46800287876131075
H              4.660385512892674              2.258984752080481              0.5628002123841152
H              3.716760664524597              3.970142846038688              3.0874364344311545
H              4.1447546121170795              4.339888557058642              2.6675362252179076
H              2.2916608340062177              1.8534169979870192              2.58639716705461
H              1.942398750085613              1.7930605545876397              3.2282445465374496
H              2.2137635615552536              4.1281010369955              0.44939940863629174
H              1.6482953031737442              4.356288160280115              0.8172970754884108
H              1.7289687876267168              1.447174325859034              0.026349733393434986
H              1.2235713987554295              1.17216092434953              0.3831169983217718
H              -1.6561195654791585              -0.4461418580717101              -2.3256641584978928
H              -1.0322197067294732              -0.4513660612327323              -1.9362982471451473
H              3.986421985335033              1.660358745100128              0.7735448300942649
H              4.6199907092273              2.145877220490287              0.8917967448430508
H              3.376039103154638              3.9815795500426647              3.0690032315803037
H              3.834890194815849              4.356658500379278              2.7054297138150822
H              1.692372992581317              1.9590216515961236              2.5460421561848348
H              2.0967191376034355              1.7206898710776752              3.239958925634626
H              2.094266897496665              4.0159564164892405              0.2880589719075377
H              1.6792720950439881              3.9443156145961535              0.9229495526923361
H              1.6110887271172476              1.6468457690896732              -0.09326424172561422
H              1.280829862370765              1.1332911131208465              0.3894261289671972
H              -1.6415161376347056              -0.4760567266667657              -2.4231478816478993
H              -0.889692140347988              -0.2699635925924049              -2.1657487001211724
H              4.208027679065752              1.740970471387787              1.0344643267567342
H              4.405270652916314              2.2740029250121774              0.511464151459244
H              3.3865762881858785              4.417596306725793              2.672555153230393
H              4.045014466006405              4.577378037899984              2.5561384047813562
H              1.8773024017560294              1.6478115458906646              2.5736020760381697
H              2.2863435238561065              1.9026847935259974              3.1529418014092996
H              2.050190289478676              3.874415382489311              0.47698952086902224
H              1.7730577175951583              4.409337845486269              0.8643364158939721
H              1.7104335672552493              1.5531033104630576              0.01626119465987151
H              1.0365192364915154              1.2454116225494816              0.13692595644333722
H              -1.5932791684598526              -0.26838857698221147              -2.4810424877925037
H              -0.8544413896293117              -0.36250393235960404              -2.279412223191797
H              4.0462500212107635              1.8108009194461505              0.6158907550640335
H              4.298904758932311              2.4550430666134853              0.7129821528586809
H              3.479916851614677              4.389477386125057              3.082109732702525
H              3.799743221253853              4.60498102562162              2.462454796596906
H              1.96817430133187              2.205357182939512              2.28633757635892
H              2.367724266926507              1.8268161148040547              2.846383867406581
H              2.2492485039518106              3.9125773689814536              0.3592740698102776
H              1.714366817453914              4.203690481922073              0.7717347018213441
