72

H              2.362564441301559              1.7404101774476077              1.280925529944314
H              1.8079630221571192              1.4530721099808375              0.8771082929840205
H              0.1881812212861717              -1.0527925087256162              -2.0556037424934663
H              -0.5517844204143734              -1.0926448687159835              -1.9430838873107055
H              4.620256970559917              2.124074889941305              0.906156648085111
H              4.995764769949195              2.570221379091305              1.3000994100512642
H              3.8699466716968267              4.702430340730253              2.412010981040512
H              4.184782412077053              4.780146054128702              3.133420616008372
H              2.652150538670905              2.386425935392514              3.584341126246363
H              3.2209758787819043              1.785149220192941              3.610731981619794
H              2.580523202973528              4.477131741852345              0.28405696542791725
H              2.921434129294894              3.8028251050535142              0.3224782264122146
H              2.1992147343304795              1.5210797758470638              1.1232764696834499
H              1.6083605003260837              1.8866166783000253              1.1142765395545373
H              0.37016920886823323              -1.1136899049701057              -1.9821228216831313
H              -0.2789822204167574              -0.8853285027889782              -1.739874205065304
H              4.754596767802641              1.9474821988491156              0.8213325246149451
H              5.1121784114345585              2.321905661079258              1.4107747265225574
H              3.7647407386718457              4.755750169858374              2.741732823088395
H              4.4127478996734615              4.7107994115191305              3.103365485871378
H              2.661967577554913              2.2476243852231965              3.333785172186558
H              3.2132167536872513              1.5328059799813807              3.427324344705917
H              2.9574123229805975              4.57476354488361              0.4492294234522273
H              2.7491025020175996              3.915337514183204              0.30391713530642056
H              2.0644133273701177              1.7467854739629824              1.190539448447681
H              1.690831887496452              2.32992238710809              0.9067953904622045
H              0.37228451721566513              -1.228628971836269              -1.603284284738228
H              -0.4330647331285411              -1.1694898046260849              -1.597445041807406
H              4.90642387490919              1.8921433558729224              0.9973361033031519
H              4.9723081806881595              2.6163246262004356              1.2460778719251102
H              4.164500048479555              4.60742968948504              2.6014228085929116
H              4.41453112999911              4.742377175772071              3.3115671906094657
H              2.5553563086314734              2.491598054763882              3.664608408268592
H              2.944084341520735              1.9240507949537295              3.5821743676661524
H              3.1810244493173743              4.60481982317119              0.20649694782440284
H              2.9727672943549504              3.9771243321217162              0.5354468976694928
H              2.2035339575667217              1.5851831197932917              1.1721434732480478
H              1.7294495917991162              1.8398596775369436              0.691850622466791
H              -0.03640690042514417              -1.1869157429573682              -1.8296104911061823
H              -0.884236397667668              -1.3016333463031435              -1.733201563700255
H              4.944972321096767              2.0210297159071398              1.0537966824055407
H              4.9367853095969485              2.7295779847526678              1.5009716175269388
H              4.288360470141011              4.964172222600626              2.4481978962035003
H              4.165324870982616              4.806911139773756              3.1439215273573886
H              2.3493124910075207              2.4871843218574132              3.8551710361714893
H              2.7827782349411097              1.9114756647107094              3.746686903297726
H              2.8293896694148657              4.260449201010579              0.11466369942816201
H              3.1987734409980266              3.8366180322588086              0.6624879843460513
H              2.3728583154598053              1.350550649022526              1.198995312751064
H              1.905074219467795              1.646061734933952              0.7720246806454233
H              -0.03692949591521448              -1.1693308552112938              -2.052020272392019
H              -0.6205415689720377              -1.4190560543259436              -1.8129899576003596
H              4.9254011211802045              2.190796991426937              0.9199267919246253
H              5.166893330134361              2.8229845030663294              1.1339587977627605
H              4.1201016391931935              4.902640372087505              2.4201381819113372
H              4.045246268496633              4.791541058901956              3.1206107520670905
H              2.173537433127415              2.2320448065710874              3.902464567376618
H              2.775854629069637              2.356244993703243              3.5391396605120455
H              2.7675669814082013              4.31202426561203              0.2836052815165149
H              2.821588910596342              3.6926591668496616              0.6609669465038603
H              2.3279508091954626              1.5567777789637642              0.8316877753170405
H              1.645944450337487              1.5229296276886153              1.1872395833520597
H              0.09679262561740486              -1.0760856600692676              -1.9071753282708688
H              -0.5609220495967848              -1.2555601604464608              -1.9333415433776335
H              4.750006645460871              2.184744824081448              0.9137227702882311
H              5.274970494005926              2.7061021278834074              1.1014705437666517
H              3.792654826941155              4.772013744289667              2.431973532716254
H              4.194612191279046              4.765862444953015              3.1226734655258452
H              2.2573444911914766              2.4266761620813044              3.6836319819333827
H              3.0179814855056226              2.3961824757541486              3.7291677788743507
H              2.5133392023685124              4.250264356834057              0.4492614813613454
H              2.8569035831061833              3.666740063944783              0.45722707436793775
