72

H              2.17266482365389              1.8161236520014477              0.25245980869944257
H              1.7097425892680216              1.9296546283158158              0.8223754286348459
H              -0.5500613883294686              0.14454135823702374              -1.7714335227761475
H              -0.27095173824171365              0.24979848649167535              -2.3236413788445978
H              4.389810331945668              1.9448424352589713              0.9993403450095637
H              4.381583394784429              2.530030128037434              0.4763658306212703
H              4.252737066591049              4.513476454485338              2.8096973645172736
H              3.9891869048691766              4.043606445491219              3.3332766076402653
H              2.8357214281155003              1.0541410695621618              3.3625844328618726
H              3.1916755496682434              1.6707456970860932              3.5867111624246597
H              2.427856954356738              4.592878178051005              0.035926056267477004
H              2.621642075529455              4.551894820570569              0.7236778016840428
H              1.9782465687214474              2.0802300263522153              0.32794484871006874
H              1.7991786514862773              1.7844859034382499              0.9448266883563745
H              -0.5171606158789851              -0.034373356946552434              -1.8614094656946563
H              -0.032355066781231616              0.5182299478155796              -2.2058556505986826
H              4.930974137772901              2.2183142305368806              0.8144644408247866
H              4.251076466800939              2.4974804489772144              0.5668383789734092
H              4.128597065830191              4.677927135921802              2.7234609726038888
H              3.946699642660131              4.171718333121053              3.221628687965593
H              2.959865258616777              1.213659925497825              3.276365556260337
H              3.118472243894782              1.9576413455539965              3.310095114902822
H              2.993312730759303              4.328248486110293              -0.018281348958257802
H              2.664134299352013              4.603567257034985              0.5885220936853046
H              2.175883026269907              2.0899307549291586              0.41825357071602237
H              1.5583194990795948              1.6545781189479658              0.527513826033391
H              -0.7267881037307539              -0.05368543950559262              -2.3217732837761402
H              0.00848780792286284              0.2715832780894021              -2.249572716358108
H              4.701646514795195              2.22274451930922              1.0345997279797403
H              4.566440368743228              2.502344324901846              0.29126720066220446
H              3.8255221075815125              4.474042771522637              2.777030001977362
H              4.013640064056953              4.538913755596992              3.5528509310489365
H              2.861248522118306              1.5203460418568557              2.978543305203067
H              3.312133482657343              1.9981560352564833              3.345737817287759
H              3.068801530702873              4.533969484614602              -0.06892618204396363
H              2.5665547328304834              4.3126679272367054              0.48343560944833014
H              2.388451299108276              1.9064148440690925              0.24203857268426274
H              1.8766673304614327              1.590203177493368              0.7402894079114656
H              -0.47378601164515194              -0.30333235433781514              -2.061139301719101
H              0.029221908875649516              0.0903484102969828              -2.3020678160548633
H              4.443728465127835              2.082564504063091              1.0763803650970685
H              4.527434853898492              2.6147389846586933              0.5353597040123194
H              4.10508727586143              4.445760826519493              2.7539011332926124
H              3.9996172198826367              4.4953398065706995              3.547956996205529
H              2.7911827812859182              1.4348248903688923              3.4337507831384713
H              2.9332484869504127              2.085183034982339              3.112217452061767
H              2.777922057619391              4.7252283359847915              0.10290238484693338
H              2.6596013632322943              4.103033400371831              0.48007487382137515
H              2.1834185843646066              1.8095684624052482              0.23581527845108993
H              1.9533091247614167              1.6586328891084599              0.9527124315011816
H              -0.7877794070342944              -0.11650302341640531              -1.8894130904422821
H              -0.23359471369918344              -0.03934226925275467              -2.4379494829747848
H              4.9667910714919              1.926925828727322              0.8624782428301405
H              4.718947456644752              2.659154544055809              0.5903198805022996
H              4.173369381759245              4.579028505041173              2.649259648106338
H              4.113246206856285              4.5376787632414315              3.4365838682642287
H              2.6123310763336236              1.5199311479438027              3.2628705615075915
H              3.146498841126388              1.9724836833371013              3.2116217793797506
H              2.8940172303195237              4.571929021798056              0.1549139394236434
H              2.2922269659250603              4.3915920266254              0.6195849229180986
H              2.079349272417487              2.165355739340356              0.08026502495584703
H              2.1616288170074016              1.7952157322983842              0.7554974004372029
H              -0.9130596024387259              -0.046557989382716              -1.9020882742651029
H              -0.37836901860236966              0.16870556130296094              -2.435811488040906
H              4.753009685882762              2.0015641521839767              0.6580584876991354
H              4.5035756915953336              2.472923581007749              0.1633305609736072
H              3.9832315447121927              4.54389663612936              2.729995683548562
H              4.116194189100097              4.211121197943796              3.41002838198564
H              2.4641077120718893              1.45929030474612              3.4735176765527442
H              3.2899076938002056              1.6169623628914727              3.3462683134634266
H              2.6571638855620723              4.460544032449263              0.01394952258709388
H              2.2538751067412313              4.361454656951595              0.5976862448504283
