72

H              2.3798174918851083              1.7323443976032706              1.0738076850368996
H              1.7497381256403803              1.5659635538406043              0.694088610416134
H              0.9188386149283686              -0.7050362055040109              -1.7790726296716695
H              0.7356979072587572              0.11123958580157962              -1.8220227685703967
H              5.1666244956403276              2.4912046076532994              1.1198125807971449
H              4.842533842063321              1.8895855844927263              0.8462141682046376
H              4.000267339401247              4.436635088992346              3.261893149575299
H              4.322362009527322              4.478920204179913              2.5513371852475
H              3.6560147453999283              1.318192057999505              3.422450526694383
H              3.0743615008220866              1.9209282851053904              3.4072134411729773
H              2.456073901439155              3.9347868949464115              0.565960254631558
H              2.7535190572115495              4.608286918966876              0.42703823134001245
H              2.043735886547396              1.537033715292365              0.9563365758381868
H              1.5167747066575792              2.063463938024338              0.6989882001957944
H              0.7276177099485204              -0.6896124515914565              -1.7254947135018557
H              0.8420466271814427              -0.05331155211595508              -1.8519434897287694
H              5.031446949157995              2.494915850914167              1.2966293489685294
H              4.8857681903517935              1.7905656013624127              1.275987602209607
H              3.937754704699728              4.797347036750761              3.2334044147770418
H              4.389905013751963              4.339002336024417              2.821600142685083
H              3.6797828027169452              1.1125755589841124              3.634502981538031
H              3.183977888426394              1.6682581435262593              3.421103070134337
H              2.902108078269124              3.9807037889270314              0.5156049617863986
H              2.9508917183085597              4.638923353402292              0.2681706758264414
H              2.244082978204165              1.2044982128026318              0.90393831865781
H              1.698522579161718              1.7040456308385639              0.91204913979412
H              0.9705986842670747              -0.8254751321661525              -1.8306153936960166
H              0.6334051095842299              -0.10102730025561406              -1.7651692508755943
H              5.149166942169939              2.534978404526467              1.2263576849111062
H              4.817109109451091              1.9626938568004446              1.715727696070995
H              4.053845173839634              4.933566657370774              3.1826242560873883
H              4.477243472299657              4.43390056869616              2.9811909913598114
H              3.4102316565568325              1.1932707380585528              3.4908691876015276
H              2.9289986905097978              1.7552092617270334              3.298555990325085
H              3.32082616484475              3.9089380359715014              0.4362456521466049
H              2.9915252568554593              4.5294937216568405              0.31984742421494017
H              2.1098229351485083              1.552256207650441              1.2883325234526828
H              1.7601795286581998              1.6532683019348329              0.720325777904784
H              0.8682001633283241              -0.9230783204192291              -1.6417383481575738
H              0.3909855891861976              -0.24351536521707784              -1.7899823405792827
H              5.380824380759331              2.657972416279877              1.1903099039408995
H              5.275111455008531              1.8847432099287391              1.166022197751012
H              4.01861778850317              4.8901084261741135              3.205870723567594
H              4.547394194865361              4.65192113339709              2.7963574394898587
H              3.251637190929901              1.4742085034957704              3.1447866946461285
H              2.961861160203989              2.0494518152774246              3.5416660626882623
H              3.2065962953903275              4.040169841333129              0.706182803022961
H              2.863697104477847              4.686629491601615              0.5321138630718492
H              2.5318727537996053              1.2962685527027635              0.7062882754677516
H              2.000654214642559              1.8090934076695746              0.8958289392119974
H              0.6316638868038443              -0.9458699783528689              -1.9322952360759666
H              0.1583111707120948              -0.44199474068148287              -1.8913224898641068
H              5.035901597086254              2.560981823972983              1.0998193339146103
H              5.096093885982877              1.8667344614722543              1.364199347847585
H              3.698543048061647              4.709029141961418              3.134969800142841
H              4.4121344350246146              4.594352227435326              3.001963913448648
H              3.220153712785675              1.55944976899328              3.2881942471102787
H              2.919915274853908              2.1906281355494563              3.336928242830608
H              3.0076065852722063              4.0566718326739215              0.6118826195746676
H              2.6109289474715487              4.320928129114829              0.0894588815138897
H              2.664757681306391              1.5023129560200956              0.8921702464217272
H              1.9700027786512715              1.6551947485212704              0.7681044836460843
H              0.6582302424942548              -0.857676597081053              -2.124025612495494
H              0.3891897816032411              -0.23384390045527717              -2.1135332538626366
H              5.131366028321421              2.6145751119957406              1.3111890549662706
H              5.166448210722826              1.8965633590958666              1.4211263820155902
H              3.778776439218011              4.6503072221166              2.962475860180081
H              4.485859624016046              4.627924612110899              2.75147153973368
H              3.0661241006306934              1.2790460651004871              3.0759243000680345
H              3.225981970615945              1.7762218889703407              3.572297368247821
H              2.6295585140345157              4.013523170734146              0.8058523884328743
H              2.6127197864717284              4.427886309111072              0.17426805517272284
