72

H              2.2803070825895193              1.0104613414857797              0.8875733392391507
H              1.9619921550256825              1.7075071696275388              0.9679882151515445
H              -0.35958001758497843              -1.044721742994406              -1.8286922293208825
H              -0.5960880806254281              -1.5814182679666255              -2.366671530211225
H              4.721023241972206              2.4367603678260377              1.3469182278929623
H              5.116074722595277              2.6261415388597946              0.7641564064089127
H              4.149226987964731              4.818864614656634              2.759394671653593
H              4.42203205767628              4.259452740448899              3.1097433458113066
H              2.913205667198284              2.042504656859038              3.5979855934208818
H              3.2938909277428476              1.9092183601830792              2.898723726326751
H              3.060259813788593              4.5220493955455305              0.4247847725143748
H              2.5541939342590645              3.9715167551004735              0.3802592396209662
H              2.1203849057996127              1.4574243572588594              0.9776328654183833
H              1.9431331903845706              2.2261600975036306              0.8775692422355333
H              -0.5405794044977943              -1.4159271282510861              -1.6691480527301144
H              -0.8448027266114542              -1.310904095346064              -2.293551092420183
H              4.65698206218666              2.1734306384856414              1.3997952508867257
H              5.077372196153864              2.6183208788438344              1.0939032396514377
H              4.309443004847517              4.7295898242057355              2.6296766934908757
H              4.559617312354139              4.263688884645667              3.167091244869146
H              3.0919311084957193              1.835322269483172              3.7784877761243685
H              3.1791860150782316              1.7105124153585722              3.068064063816974
H              3.0437767609289432              4.7177733450786254              0.5233141781617078
H              3.0561979550236757              4.041210667390392              0.2821866331028282
H              2.2391241275577562              1.378583349652228              0.6502826722482139
H              1.9648313377550444              1.952871057404031              0.9869905657817561
H              -0.6104297164307231              -1.2764410332864824              -1.7149102256708757
H              -1.1350496870728821              -1.4080741977576237              -2.09516529824379
H              4.868358443849476              2.067720066261241              1.4691393170063558
H              5.0205474376497214              2.7216125460483402              1.2809803011707381
H              4.641421303368864              4.7445250735543585              2.6477150073236837
H              4.518479313882488              4.1745747520636              3.0600662940866834
H              2.9087456509996725              1.758851134639611              3.8077705113592333
H              3.0090912054695025              1.8315853084249656              3.050184361873832
H              3.2164717272903953              4.5243501377199395              0.3194408058312993
H              2.790173660274975              3.93070963333464              0.38646194798495204
H              2.089558385959132              1.4358836918311637              0.6941660966976823
H              1.8346598262625327              2.0220563697827414              1.0636174510948446
H              -0.6969374613196707              -1.2421005419601177              -1.594997666093704
H              -1.212170237486434              -1.4310840623532306              -1.9763805463344388
H              4.907343127335467              2.4093874451945934              1.5525360842479987
H              5.19227562598566              2.771847542790586              0.9256261308632293
H              4.728091761218239              4.902824535909192              2.6625334917173173
H              4.507630193457671              4.205542820690316              2.914437379602129
H              2.8204226109511445              1.719594615436112              3.6636187487246676
H              2.7048475263621663              2.4443551751508776              3.3496672753599235
H              3.1471313106152046              4.710631633909087              0.5006262906345635
H              2.886912011377122              4.09241773467149              0.44018284170211025
H              2.333881866368692              1.108409427339852              0.8654936096846151
H              1.6651127888314925              1.520535208361503              0.6875665237355838
H              -0.9825736578329605              -1.0381983339792873              -1.7087133623368396
H              -1.2292801443064776              -1.64502216198429              -2.15466783044665
H              5.164636650406308              2.356497259572941              1.451624937561911
H              5.015464459377711              2.7552031270392567              0.8372527595494414
H              4.456674522825013              4.940163063397541              2.556543478836868
H              4.22405144772481              4.346227915300209              2.9945905258918213
H              2.746449237237254              2.120308668625085              4.059793236975736
H              2.719161539781827              2.44107013824737              3.413551660678022
H              3.026567539805591              4.627164679946829              0.3119806577541691
H              2.6982308772259587              3.914973521041258              0.20940604334260232
H              2.4839908936268276              1.3450732380314312              0.9518721539267624
H              1.8447026344499098              1.285132613700398              0.632085990809833
H              -0.7045987940089076              -0.986767954518249              -2.110024635110462
H              -1.0619097927202954              -1.610540544694896              -2.4423428037208486
H              4.936807391332741              2.373116254019653              1.387876409305393
H              5.397106929544692              2.8105701029512935              1.174348135820918
H              4.1880025996316395              5.105823692177599              2.6491103505353117
H              4.30290410332175              4.410284925767122              2.692451029811036
H              2.7480241212405367              1.5996513151905305              3.669252835838009
H              3.122365812890747              2.189450809559632              3.398721938570493
H              2.9550042839434556              4.422885122982967              0.2851101469373152
H              2.449979795817704              3.9113475186306377              0.5215054325294533
