72

H              1.873693732424489              1.3441527269094415              -0.31548493644061504
H              1.3157606778323439              1.1155536466137546              0.08151558072810328
H              -1.5034135617388984              -0.540784524198927              -2.396326262737892
H              -1.054162542072063              -0.7121799010088559              -1.9157311072238579
H              4.114201894125717              1.5763677682710704              0.604331390636587
H              4.384178967068265              2.3233594463193428              0.6468068435726823
H              3.6911920554341675              4.419427407261486              3.188750861785766
H              3.886983758583805              4.398836986996768              2.4609874375899605
H              2.062343980298831              2.112216143151855              2.682848414220378
H              1.8067598851289253              1.8883934738462012              3.335873986842152
H              2.0941673355013615              3.768841903537461              0.49708757076701876
H              1.4405041828985308              4.113133736952562              0.5874645321223698
H              1.7098873385605926              1.548783314268192              -0.2645824395096518
H              1.0778493785608074              1.2477964560423993              -0.10668147792506286
H              -1.819342758452206              -0.6185774173953368              -2.4895270579296045
H              -1.2042243228719605              -0.9486423297369655              -2.1417666989612685
H              4.007002834275597              1.7158356865210571              0.9018889203569949
H              4.526040732774095              2.300642662770061              0.8975118153957511
H              3.521261430972848              4.39241519897917              3.03165091654807
H              3.9325161570161855              4.371250214123308              2.4168558516436223
H              1.6575197727345978              1.8407691025701953              2.4096392738792156
H              1.8887950900988153              2.05034703396004              3.1644190332096147
H              2.092688525654384              4.115275606728636              0.651323544238062
H              1.3688805581412808              4.162241744367852              0.8428349157423256
H              1.7819450172838445              1.3176969265012588              -0.5839641215284644
H              1.3441270510811503              1.4184144682826083              0.03208233951383156
H              -1.752942080000215              -0.4283247710905867              -2.2872889778271044
H              -0.995859635954519              -0.6496255604248571              -2.292174780877812
H              3.830298862018164              1.7413901541538563              0.8236455001608267
H              4.212023845825187              2.444890262510692              1.103710277127774
H              3.645510981589744              4.016684010732168              2.8745500870922327
H              3.9978515372227346              4.601081093597325              2.495209314534476
H              1.4888106070318237              1.8819669789980606              2.5213088338817697
H              2.1397515050902967              1.9463386129996003              2.9317109937331103
H              1.6532367259707192              3.7020612288138732              0.4517671571183692
H              1.6357470255857156              4.0097365009242125              1.1389778080728914
H              1.6057784884315076              1.4791681455267551              -0.39611897067622776
H              1.5552631282063005              1.1494350523926675              0.30769955939128757
H              -1.5877120267083062              -0.27088067078653144              -2.2198643176964494
H              -0.9366205223970113              -0.482029767729448              -2.004897618029328
H              4.0571551936085335              1.7888119171933698              0.5439445998109953
H              4.307290283021926              2.4596251118212726              0.6165808319047401
H              3.798624892812178              4.134599065532026              2.925565522955766
H              4.230676274750349              4.506443838333409              2.426094289869859
H              1.9935984998666691              1.9844163924262943              2.2190189346146405
H              2.0229916126066647              1.7690325989398763              2.99258583833241
H              1.770893485508222              3.806360051363388              0.44533349582224513
H              1.7604772679883465              4.446584975131204              0.8296653574992732
H              1.894748111371735              1.1510925462562913              -0.11972378913894108
H              1.2616843166680214              1.126222696958541              0.23157053469327554
H              -1.4702968096392666              -0.3256006061411599              -2.371117773704081
H              -0.92878596814974              -0.5645992941190054              -1.9249204613286075
H              4.1220867599369795              1.8458902874131247              0.3529657473650936
H              4.492181244013971              2.161419031936764              0.9470037955109909
H              3.8798829313786447              4.015257703063072              3.3886132559120274
H              3.716054253490369              4.287655484207574              2.7179205765500285
H              1.9642596555553344              2.394690131521681              2.3457753146970934
H              1.8762084021748762              1.7874917939982202              2.5753521091276164
H              1.9862637162240824              3.858690948423425              0.07837126109503927
H              1.7082874571025015              3.9201868450149675              0.7115320939577815
H              1.6549557354777233              1.395598412012766              -0.3337708039303169
H              1.6083599810814917              1.0676986757309093              0.2775706816237677
H              -1.3492010146970135              -0.6859717022862232              -2.4028847624330356
H              -0.6718100479925629              -0.5439134429975971              -1.9722662799873656
H              4.342442118394606              1.6417807254866068              0.7829151987016818
H              4.871724740152986              2.2114240389013244              0.6262527422718852
H              3.7270354707861126              4.083741711052675              3.185610920833553
H              3.989320015236246              4.490497228919067              2.640719975784778
H              1.5591237978240615              2.0454131894839893              2.548059085683098
H              2.0584940948001025              1.9207282681916769              3.0812605779310402
H              1.9772499761670865              3.7773659400577575              0.09289360369701478
H              1.6735511598262163              3.9836007851069466              0.7601090328710425
