72

H              2.0815549662774386              2.2547287353253487              0.31538901623573057
H              1.9092488564033503              2.09862515803273              0.950560537615731
H              -0.6789530047236342              -0.16412188263031183              -1.7872696116593323
H              -0.2506530891096001              0.25625440317998543              -2.084431787844616
H              5.107586943691382              2.2613581790202097              0.7967007649887764
H              4.655039472106307              2.2261547481513637              0.32081646030327643
H              3.9900180209407616              4.725411648968839              2.9512693862902206
H              4.244750812450919              4.117362049548298              3.202286076491277
H              2.71705427784858              1.8151363243987813              3.4964780521639347
H              3.4149902135086596              1.7391273516439456              3.284558374850742
H              2.958015803520577              4.360483455353536              0.024487463663342306
H              2.6227707315054487              4.5880018857707              0.6017858390333002
H              2.3716725496008704              1.9024180808951472              0.32581373691802074
H              1.6846994199376424              2.021585968557711              0.34806113330092986
H              -0.7496806765277931              -0.28687238233552986              -2.1240946563255454
H              -0.27099764780295393              0.3035007892420942              -2.3554707346895856
H              4.562530112825354              2.0935243653102633              1.2124313318159727
H              4.328237298562399              2.426802527941457              0.5585463419824889
H              3.8045926006482125              4.686455173995787              2.887001605123
H              3.9532742732600648              4.307457958786516              3.433269747329315
H              2.756397693507434              1.640121303502175              3.286032057287683
H              3.410141763952811              1.8190091600766687              3.4127153875042646
H              2.8087969232203425              4.41253828443697              -0.10203623676679248
H              2.4547185501895665              4.625161626227467              0.5400309751454629
H              2.2732512014985113              1.9948863518011342              0.15147781116259168
H              1.960944954546904              1.6852989550960977              0.7324610721107155
H              -0.2607394602137693              -0.270902504131815              -2.043993790610178
H              -0.015762199056064893              0.3330594813887822              -2.5958342705065296
H              4.941663354210672              2.3178773812090507              1.1401060521796487
H              4.334785481042182              2.5029466704624617              0.8678059838523038
H              4.208430905366605              4.973274979108164              2.768829951412543
H              3.958543003584024              4.28559846801396              2.943459745691957
H              3.0024588428382275              1.1785520125035762              3.4270567530957807
H              3.063273830658987              1.9221388017484518              3.090688936178576
H              3.0123675502027702              4.481005649373459              0.15210323870718967
H              2.497452532263194              4.778415148526636              0.6159284135025743
H              2.208527509529827              1.9613451377399016              0.3570965659245982
H              1.9180795919548834              1.4235630386567273              0.8562873644431646
H              -0.3557147108488982              0.061898272068514115              -2.0654560486386555
H              0.11551721997703954              0.3544464870521761              -2.421237734805544
H              5.037112666370283              2.208176666532479              0.6993822767150891
H              4.604002142491907              2.7094630369720187              0.4745345396987158
H              4.271731969903455              4.696788460360064              2.7152767114340297
H              4.029325058722391              4.351485888535509              3.3223954282448
H              3.043096786050169              1.471559472826639              3.0920583929969934
H              3.3959298043712023              2.0284768993004225              3.080103221153805
H              2.9688387656767885              4.581714751836041              0.04843517823784077
H              2.5271736861709284              4.411040734592652              0.6479396158174084
H              2.382762064311815              1.8062764156812263              0.41445301671644447
H              1.9227440285045592              1.9419476271581873              0.9385917780142352
H              -0.40731956938732283              -0.09284057375372902              -1.8462646102060984
H              0.20652730798050312              0.1736579332682942              -2.33972033834118
H              4.720965921921228              2.1749628745068956              0.9415062755304289
H              4.767631007332005              2.5705632183811833              0.3327538041067365
H              4.372356230033886              4.27064812973701              2.889850316022112
H              4.020044718267749              4.118251587624273              3.5579770336101255
H              3.1608576727633517              1.2951723653017755              3.291248798603398
H              3.072997625363117              2.0646352816071527              3.150327888704572
H              2.900491593964806              4.661769010572126              -0.004449575222888895
H              2.648213637122763              4.197796805999049              0.5446630584913572
H              2.353935136995773              1.6147922919686064              0.5225752039033021
H              1.9780355606904365              1.9105137782250572              1.1475085965138776
H              -0.32949550854790244              -0.04239845988626714              -1.5501488404109214
H              0.037299618634765996              0.1637781802877894              -2.172878716261836
H              4.778279850768366              2.035118140081282              1.0818809928456539
H              4.675431566342667              2.550346147556682              0.5931258872207591
H              4.517377567575043              4.278898763137953              3.0408623226065163
H              3.9798135636297305              4.070388648538582              3.44975685427937
H              2.913052551581656              1.3859260110242262              3.358113941932998
H              3.129105336428536              2.099329767128465              3.2950764512968127
H              2.8108667444979454              4.525391353394535              0.00022344666202931082
H              2.7643490815027376              4.1655202296601335              0.6108291393071411
