72

H              0.7974920464174265              0.9385710952960865              -0.4879690866512565
H              1.520230670839408              1.1306832481765188              -0.25566799381603666
H              -1.5649073698689264              -1.454830754276405              -2.2840914081230737
H              -1.7944938323730804              -1.614119809636416              -1.6889339298604369
H              3.753022475519497              1.434010336862562              0.8087278664560592
H              3.9980154556277685              1.7568145789097012              1.4389093618513447
H              4.231884410773136              4.226489656860869              2.6769362836747206
H              3.6608859174511323              3.9280884135652467              3.0179854005705815
H              1.2453416210885293              2.1968698980437478              2.773333086709105
H              1.6099167849608795              2.1233089946640282              2.1388301673405263
H              2.0870090759538105              4.034600958535516              0.30049801455661346
H              1.6710828930519905              3.8626887942093537              0.8713577135530989
H              0.8786049437403172              0.9137265667275263              -0.2923312359012563
H              1.4759858324049875              1.320001534283721              -0.4434979812751819
H              -1.4511281756738523              -1.5643325947710738              -2.4005058483909103
H              -1.566694817192197              -1.4426796526305692              -1.663679111840027
H              3.9473092082992567              1.3111123803526623              0.9307397207637773
H              4.336929617252663              1.9139351228427826              0.8279186723396528
H              4.133143663348523              4.556912607354107              2.419853521837204
H              3.8132474667763434              4.069397455306695              2.9167549759184572
H              1.2841739676369215              2.297660276400787              2.757659741055287
H              1.878318139091284              1.8836578046041597              2.5362146802479844
H              2.2882095217369165              3.895173407286069              0.15076341810393706
H              1.7410475473082538              4.039655960545191              0.5739797041134356
H              0.8345208132878134              0.6835547637366112              -0.49614954959055546
H              1.3880338821410307              1.1885753221603608              -0.404523285591187
H              -1.4916457276749118              -1.5740722494359498              -2.565394939297852
H              -1.6939766840520993              -1.5910830346314129              -1.8296478989898795
H              3.7970005518767453              1.2959634919460803              0.603066702716516
H              4.193732819105492              1.8774217103972626              0.888344854145974
H              3.927619470011866              4.451761687177883              2.6081034634160454
H              3.5927142112997674              4.0344624177938515              3.048174789743824
H              1.2819761632911586              2.395222942435054              2.604511160002202
H              1.8316073051696              1.9704845206474668              2.8711922348383343
H              2.4391007748939035              3.8979562861593995              0.08258504067690771
H              1.7988868678343977              4.049448578301332              0.4569445695089124
H              0.8636188016270383              0.5743295377210568              -0.5866684623381302
H              1.289124010371442              0.9115417145981946              -0.06622895853176916
H              -1.439928040470168              -1.6971923999795548              -2.5335580646590885
H              -1.378128694196785              -1.8952837420801645              -1.8659188718897886
H              3.8289372397588783              1.2543669040253564              0.9582293405731893
H              4.364189555286715              1.8576380679295446              1.1219530035327405
H              4.03633729676118              4.448205482431472              2.550658996939912
H              3.635759674224882              4.011591463734263              2.969981090184705
H              1.0124393457851282              2.166411763945014              2.767076605345428
H              1.7581584848491596              2.1310488916958716              2.672262376275774
H              2.343898905671959              4.141371307554069              0.4211567775757247
H              1.6531683186297708              4.12797840952919              0.7566115882256575
H              1.0029768838683892              0.6199280723714686              -0.5992786628402254
H              1.2459700841658101              0.9677319327841922              0.04297115322728101
H              -1.615489591374956              -1.3249086816511406              -2.2829099551751364
H              -1.5624051581733802              -2.034065769990581              -1.8595794663821101
H              3.588698765570672              1.299266562469386              1.0687829739796415
H              3.9505638130817333              1.9652290077371168              0.9627703570178291
H              4.086325664011734              4.503680681864398              2.3793374930516893
H              3.9045565571274565              4.116025025336709              2.942386490843234
H              1.4348835419356643              2.264043941607312              3.1029775575873666
H              1.6508396870945135              1.9125114072108547              2.4314938429170567
H              2.265861368414562              3.9355344381397304              0.6850529670724975
H              1.5652877981978721              4.134305170791012              0.8515994574007992
H              1.0986020325524537              0.9883916184772271              -0.5795667306685076
H              1.2031032037823122              0.6894720751127483              0.06127427596477913
H              -1.748967900243261              -1.3843514604978626              -2.376350684469856
H              -1.92656146390186              -1.8732355925114896              -1.6373773044455184
H              3.4902763343853627              1.407847142590582              0.8494189485519482
H              4.0563707663376185              1.9944303396939778              1.0031286818865854
H              4.070881818673105              4.5389936985997945              2.5307616133471322
H              3.998308782053584              3.864684838356916              2.8043214062559176
H              1.5404988608740928              2.074289006724051              2.7836952671989468
H              1.715603385360649              2.1541536181132894              2.071472792578633
H              2.3158673861658774              4.221830800839832              0.7512020739670918
H              1.6260508053237617              4.391735666910626              0.9492406630439283
