72

H              2.3888553209265786              1.3275915408596404              1.030376103021287
H              1.8549276219225808              1.8388861704247388              1.0345808300388664
H              0.5287604862186445              -0.8838341642515041              -1.6842862229690243
H              0.2235243324015696              -0.18632722850881958              -1.7913358767403236
H              4.696942316285079              2.363448223590681              1.1283988315382916
H              4.884490997788117              1.8017019584941818              1.4795783220839303
H              3.7539751978511373              4.575316629831542              3.1761512345943625
H              4.515708388334739              4.681690887948808              3.0363023323316938
H              3.427500726780363              1.6260265164584566              3.042772090669088
H              3.0290738222341673              1.8297962829258019              3.6315222361262394
H              2.6543174193640575              3.9199468106381627              0.4642841178957291
H              2.914264250957036              4.5302821517990965              0.106685490183478
H              2.559526171784981              1.5432649971666517              1.141521890521382
H              1.858566326365213              1.6912451626245502              0.7658272724069902
H              0.9545414398499523              -0.7034804416166703              -1.932168629731213
H              0.4082968811479495              -0.29124497058321214              -1.681383303724036
H              4.87560231787287              2.436447205095792              0.9088510294720278
H              4.889257875433046              1.7264506223060512              1.3428439305204687
H              3.6888443848846735              4.763560478691085              3.0953908580623306
H              4.4238529737566              4.867432254666188              2.8483263697123045
H              3.302251586359752              1.6436718312826843              2.951749780937639
H              3.0092690869571004              1.8050742836929226              3.5835700614153736
H              2.642546304718633              4.143097358939143              0.6483336930405089
H              2.9159887027398312              4.530639492294005              0.11814541083858073
H              2.263976069523859              1.8212428413487216              0.9856387583052018
H              1.7186407213472892              1.608068061536894              0.5435760819442735
H              1.0507090127247167              -0.8485331938657575              -1.9388112709796617
H              0.6175919870571529              -0.2542758705797053              -1.7414013934288246
H              5.169350532251526              2.4839227521074863              1.1946959614910913
H              4.935835595024123              1.76326216524954              1.2556365537917777
H              3.8231245621980112              5.074485756901313              3.13649233356694
H              4.333992507690988              4.669655112652569              2.831468042366149
H              3.3948650250369705              1.572518221345238              3.2053827187692407
H              3.0539623529281696              2.1163715390332998              3.5836300104453835
H              2.798878990819945              4.019306697910072              0.5755538372300769
H              2.793291315181351              4.649474732724219              0.20814728725607104
H              2.5720605565334345              1.5381565383327551              0.7394555513684938
H              1.8938798209053305              1.7573720418150995              0.6269548231598121
H              1.0006941257933712              -1.0620988122935875              -2.2030430309849804
H              0.6310462754109473              -0.33494918561922754              -1.8666398288953197
H              4.956653115922793              2.5931699197221145              1.0301529006191665
H              4.834728387653979              2.1960473461767607              1.7171023884209444
H              3.847779265124035              4.892120960823574              2.847290148089786
H              4.478931041407175              4.590286476423573              3.0586580587572847
H              3.4183867105186976              1.3842629097656343              3.5517330807400733
H              2.972778356757715              1.9483100542363276              3.434531136030326
H              3.1847310514609304              3.7609901457431163              0.38023738697182574
H              2.707802207847072              4.355226022794506              0.2369192857529998
H              2.4440848688879133              1.491283493015423              1.1178479697728811
H              1.8520213696758567              1.520895506729687              0.6467397492527829
H              0.8563029571588165              -0.9744688559978978              -1.8747173492830658
H              0.7549421629761417              -0.310288437924243              -1.9473738529824463
H              5.036714066300986              2.711926536293156              1.3196252303093363
H              4.93731514377717              2.0428906390460897              1.1121289255435496
H              3.957897961642829              4.6393688363850565              3.1809719210828047
H              4.606786150650654              4.432261127338669              2.8542752289585347
H              3.003277613024673              1.2049165285556975              3.480875899572399
H              3.171044469032411              1.8791421207740309              3.6903215207164664
H              3.068461415223759              3.7806472145216086              0.7645312907065737
H              2.6073490621914144              4.242028828638933              0.383271159702184
H              2.377415821787205              1.4114347456351368              1.0790733009887037
H              1.9279133824474273              1.9834068864494863              1.0236993206960947
H              0.8026603155098915              -0.9866647697172891              -1.4522350458458464
H              0.5368807658738656              -0.320518731339183              -1.7198080538882672
H              4.793933346787778              2.560251901270784              1.0523976815313514
H              4.932476912379994              1.8453596200380338              1.0916133514686257
H              4.096544688482325              4.198536595872528              3.353545023453715
H              4.515121335684405              4.540665992757306              2.8367727034284327
H              3.4249437725821337              1.5916860895170881              3.628951467475461
H              2.806562109948194              2.0884567375283107              3.5462315646457645
H              2.792735210208275              4.010990200653336              0.8472285862639677
H              2.8352534657625745              4.271755931700179              0.13271016056914756
