72

H              0.9663589430673333              1.1065800740892258              -0.47341002627780543
H              1.555834124751049              1.172582435571164              0.05988100307288227
H              -1.6009339187820821              -1.4046758892521516              -2.16386175532518
H              -1.858367191812228              -1.5755641791109607              -1.5990075423962986
H              3.357438660824672              1.488070402256923              1.0098181748587947
H              3.939949359361338              1.8336353632601181              1.2210664010633778
H              4.1876906224595185              4.436316268891631              2.6880156078024178
H              3.8354616387482108              3.76164061397895              2.747666841786224
H              1.31398775150321              2.3590917691101083              2.5162681562663005
H              1.968055402871798              1.9907072656543967              2.349962971133967
H              2.172406447019949              3.8574081041673525              0.5636685332993786
H              1.502337033780721              3.9944882596002578              0.9011397802337411
H              0.9858088854357715              0.8324316248690368              -0.5925496986375568
H              1.3311639247506384              1.3007708815067391              -0.14672899093561872
H              -1.7293581656023846              -1.5304455250810625              -2.4761099145113317
H              -1.8531454498403028              -1.548325191622246              -1.7749401729942478
H              4.01502649067427              1.3218889630969755              0.8089093778085373
H              4.341587240978639              1.8488156187963043              1.137868107649299
H              3.8988458663684673              4.686274328660503              2.46885262866519
H              3.6572748035323723              4.142182035844444              2.9217736609274576
H              1.0910711252008              2.331757979093893              2.6772659082519152
H              1.7203911602257254              1.8441608946758963              2.5092078800248583
H              2.2650607707834007              3.956438395554057              0.33417683850392027
H              1.5697246595580236              3.9862624434481027              0.4820794809484903
H              0.6372165518322228              0.6280592872633987              -0.3301943761038242
H              1.3055728132761295              0.9675725558788525              -0.24025984303545916
H              -1.6632712353464727              -1.4977276878635648              -2.80157555863496
H              -1.5888122714435569              -1.5500871513773238              -2.0624492188472776
H              3.8811573233828582              1.2956032647628197              0.7902533220930144
H              4.330640798364726              1.8196281157491152              0.82777254989033
H              3.973991495765662              4.698813215299734              2.764889320556532
H              3.486818935794515              4.18971590535933              2.8635379328191948
H              1.1724338277085973              2.2936169842906198              2.6604944988351282
H              1.9028332903407186              2.1078316742182235              2.6166481883854797
H              1.984148890120111              3.8356119623304217              -0.005844195923507964
H              1.7975434630152105              4.148118947284413              0.6594025215195678
H              0.6862324409345658              0.6165599901317858              -0.4574811248662118
H              1.1501643030873865              1.0539395463454089              -0.015615170897337532
H              -1.3216906712799266              -1.3612030777511683              -2.415418012477298
H              -1.2340375585847034              -1.680511124111774              -1.8459991912178266
H              3.8519219922005075              1.3782914511635933              0.8131747506449777
H              4.021647025368513              2.130410734768736              0.9236675519410104
H              4.282381715359481              4.454286250891792              2.5526417480438526
H              3.7894388571409143              4.1389149836647565              2.945298787336621
H              1.112144957783241              2.388188203859015              2.9215024446066273
H              1.7326836761356477              1.9196204172372777              2.6688626491254737
H              2.207433002906909              4.006405956142567              0.31335230631362465
H              1.6660366508625761              4.151495846278536              0.8346194961503696
H              1.3325626524423648              0.6561319712718847              -0.6473160791898119
H              1.0072584177092212              0.7422991234432162              0.04785372236961392
H              -1.5308481055581253              -1.2417609571505326              -2.2240243887795126
H              -1.4978777516303299              -1.9488321746950412              -1.8274969295770829
H              3.933359606627205              1.4752971717166838              0.8993324754336581
H              4.202989237218867              2.102537141047558              1.1253031925962673
H              4.247556476251938              4.313902471823646              2.464087606940124
H              3.921822240648344              4.076979858759153              3.0336643190535093
H              1.1992379013129884              2.3981597156992946              2.912099111077112
H              1.7039862216645998              1.8086535908786625              2.592159861077879
H              2.429893077071488              4.074646207956522              0.7336068720113816
H              1.696920110429054              4.095082969012575              0.7542935686786574
H              0.811665949074151              0.8127286219177997              -0.4770959789604153
H              1.2409724704921463              1.065625673727616              0.12441471262339089
H              -1.6525944613633976              -1.4561287544123107              -2.3484887274780943
H              -1.6510273642932944              -1.6198621810413627              -1.5307017359883188
H              3.583785199833566              1.4683781667450517              0.8000186063202146
H              4.162434302014939              1.9561677110922648              0.9890683191776083
H              4.110463336370414              4.357891916982577              2.658043829352892
H              3.8460630453918614              3.7021676935718415              2.784303241411581
H              1.503763109686057              2.1021242542085585              2.875607660746868
H              1.4679255126379644              2.1660324170956122              2.1686575280429037
H              2.2038180712335946              4.181327997622548              0.5728582712534295
H              1.6009312647729663              4.1698191256636274              1.0037407546405142
