72

H              1.7274204168535547              2.018939624463263              0.3680347678723547
H              1.8453991791860012              1.3315163090296425              0.5619731034119961
H              -0.774284908305843              -0.0666031772858499              -2.2184160509019293
H              -0.14230544911711085              0.1369565076758169              -2.3496990344029203
H              4.771651155578848              2.064910982705168              0.5299775430210063
H              4.526250332346939              2.6418310782370327              0.30328572562310596
H              3.8245040567521187              4.425762230829744              2.6204228007965438
H              4.120081059447646              4.7273218031297155              3.1730240185081597
H              2.7072685455139642              1.3480625828381076              3.013727528631142
H              2.8416859672540427              2.128461260102956              3.1085656783751543
H              2.867900644889531              4.439938727878476              0.2619960778706952
H              2.2937527341990984              4.270314144326524              0.595176844313705
H              1.9957815112317732              1.7401858446170482              0.23330137098423415
H              1.7012564190470894              1.4500500366408318              0.7821796396108925
H              -0.999938062206039              0.047000062766608126              -2.0844202601204214
H              -0.3022505058230803              -0.22768320068591283              -2.348007519093654
H              4.336565542204663              1.9041560992638684              0.5447133589055837
H              4.780181634715731              2.5020927275205995              0.610316213435423
H              3.9232893860317257              4.033720688655093              3.017572220234004
H              4.103079168689843              4.5979534683777326              3.377473906700965
H              2.598693763931851              1.4423303928733404              2.894330478707691
H              2.8667442811345696              2.025142361670055              3.247582451535772
H              2.5257116165181333              4.610404747310343              0.21089794567925804
H              2.3020956030357898              4.0234722788289865              0.6116115989912099
H              1.7447712798560038              1.9286355787172822              0.28068567778859616
H              2.09739412833633              1.5683018793050927              0.8296794733923504
H              -0.9071797661623799              -0.09122390049556135              -1.6611665196342273
H              -0.32740253094379257              0.04888477190530094              -2.3065850964392114
H              4.643291459852587              1.824473600838139              0.6937274230619223
H              4.560792776804238              2.478803084124683              0.47079599639418473
H              4.194260055073046              4.215921987335925              2.617006008262058
H              3.9583835810053953              4.245432849210634              3.3367728442216165
H              2.467074481976036              1.1072868827948648              3.473916533235965
H              2.641285775528477              1.8237975739232735              3.3912444056184134
H              2.461837995078038              4.373883423440466              0.18994788064799306
H              2.352503959059741              4.069198180849829              0.8799826493525248
H              1.7590331138906128              2.0440589879354754              0.21347587983396768
H              1.5039041903515138              1.677212967099769              0.8627179456297727
H              -1.194431781592515              0.11986801668020751              -1.8830951641968063
H              -0.5423724030650352              0.17795365917568068              -2.1166219965826274
H              4.628758287336578              1.869085253013911              0.6519882918192417
H              4.462723902560007              2.396708941520092              0.21650062908308942
H              3.8003664569753903              4.439522750681384              2.5824751226181184
H              4.064310453181467              4.31800918532968              3.262527744462202
H              2.5076356934920194              1.6090688272412499              3.364729896233019
H              3.088291593533462              1.3836055445404598              3.558791007767912
H              2.5400200610616377              4.28831519335458              0.17314593835906
H              2.314492605157572              4.558320878387095              0.8335110998206058
H              1.9463126355455689              1.975241618964541              0.1528544353767489
H              1.3138412842737424              1.823185661425383              0.5489850077736137
H              -1.1269726100933366              -0.1665313691243956              -2.219118501520709
H              -0.43408338799312685              0.24496051145283115              -2.267876963386013
H              4.2837308866178585              1.9770329482474416              0.9782235598136271
H              4.288314928416698              2.429571469254443              0.4298186735039852
H              3.4554032198289195              4.3951217351124034              2.717402193193965
H              3.9452214463200894              4.4782344275287835              3.2737859278383006
H              2.402684607557522              1.5963299255192587              3.1794480460938357
H              3.045344120608548              1.5721920542746017              3.375920465780037
H              2.733605607352981              4.381465756025507              0.021411550271067316
H              2.350548659687064              4.432735674535151              0.6666415999482278
H              1.9594542137585431              1.8453444211890084              0.2939958639563351
H              1.4495429371005857              1.37052036775851              0.4958540932406008
H              -0.7700604220690825              -0.1205312456581518              -2.254658604967402
H              -0.1864670549262986              0.1989056211761474              -2.5512239192601065
H              4.522597768175353              2.0482541717070455              1.1459217057539874
H              4.352691554713447              2.6120644480430433              0.6850399703681349
H              3.7637516963814313              4.527961245680164              2.533974078888004
H              3.880332486332714              4.668572983596633              3.2262238710040236
H              2.653979966620192              1.2813095656110647              2.9218722479136803
H              2.820101263573975              1.9148180247873414              3.2979177063530747
H              2.8724649651942356              4.360636521910141              0.16817253584684308
H              2.382589176998006              4.3365931259815245              0.7436398546366869
