72

H              1.5802440658476884              1.5768649916493163              -0.2680043109550791
H              1.2239354613942235              1.17808888451291              0.163232286629537
H              -1.4934537244906665              -0.3784570400594514              -2.4864063677577795
H              -0.7379260204484194              -0.6659697908670844              -2.4799782138807536
H              4.547076171509787              1.6965457500221615              0.7050739237660398
H              4.760002401731443              2.4691066700303943              0.7103392444422307
H              3.6494576804683514              4.22249880019404              3.1735659247401684
H              3.864961430409499              4.67653188972424              2.545847887691826
H              1.9546344812179282              2.0385137916459963              2.2269650536291183
H              2.123858295936421              2.1709690101500447              2.949423383932692
H              2.2568117925906823              3.7806056500776237              0.386391019729316
H              1.655254319380051              4.045814755714617              0.7354426612850472
H              1.4860789692805314              1.8376491875319132              -0.378231759547582
H              1.5289551325812916              1.2231139380784717              0.12091522763669553
H              -1.3490088748988656              -0.32320938428766877              -2.1821019276667375
H              -0.663145944795087              -0.5524497964094115              -2.1333977386275573
H              4.106964762069189              1.7445184979167772              0.47412605525511636
H              4.368543994115271              2.421179021399119              0.6631710393592125
H              3.8457483044380965              3.843145893818926              2.9312995722652895
H              4.066119435113588              4.540754314509249              2.7453957572766505
H              1.8961192054328102              1.7861912426458795              2.6247056177916606
H              2.0888412405696997              2.0669449915314373              3.232585645119773
H              1.9861729165679223              3.9079178128800836              0.35436570585430793
H              1.5265093181098106              3.9628814963070695              0.9631292699523493
H              1.607350451487503              1.447677130564977              -0.06319501084959145
H              1.4762509865612135              1.0933658657273146              0.5233404246182309
H              -1.5228856874028267              -0.23028403413198084              -2.0608373762106154
H              -1.0055912209150608              -0.6689941125277596              -1.823475923110577
H              4.10817519323954              1.708067901895817              0.6098415184926528
H              4.369891962114545              2.335263647799324              0.9331713825008608
H              3.7868594378285594              3.9306866564637803              2.985790469629429
H              4.171044497926059              4.397586722453507              2.5406966033157667
H              2.0601028595407973              1.819542970568823              2.554686187197121
H              1.9940436304491367              1.7358003847143497              3.2564260991285994
H              2.0389991531299065              4.029481336898056              0.5229130226774833
H              1.6366271852914362              4.339681564414013              1.0424978267835907
H              1.6886456770379152              1.4366899112297473              -0.123013114360464
H              1.3247783445115298              1.1118591805101              0.4278931515119126
H              -1.8133135465458978              -0.40122468477780265              -2.3486522197419823
H              -1.0544923557613315              -0.42087408154189293              -1.9196842976626567
H              4.156378945746803              1.6428917576429558              0.6572236172260959
H              4.6313883385609556              2.2550546668591913              0.7324173755480927
H              3.3957217425451085              4.078250848857461              3.0133558593445655
H              3.920128022947286              4.3314373136527085              2.5436201244312038
H              1.8038489437050118              1.9507898289593943              2.4298144089625144
H              1.9257073806751093              1.7307087682640538              3.0895889470412286
H              2.012031679290843              3.8958457717969446              0.29275957757824655
H              1.6806606582250305              4.202906126989687              0.9080835444351677
H              1.7957202490991067              1.505302600785604              0.0265390889781402
H              1.294572877684604              1.0260628993932153              0.2707623893227897
H              -1.547520761054435              -0.40175084917253995              -2.4654219243148336
H              -0.9459301966494302              -0.3012755049784417              -2.1127708879012714
H              3.810811063955074              1.815222225545816              0.879916765769004
H              4.493845564322317              2.1236807525719184              0.5642675255854778
H              3.4010264894611093              4.1337294517785335              2.921613677907789
H              4.0612138463319205              4.61054661068187              2.7316537943217307
H              1.8950024485840635              1.9597719115113543              2.3203344503386827
H              2.288667609631792              1.7916669332235284              3.0323412262161824
H              1.9296776476002322              3.829698968532626              0.21016111980534016
H              1.7421656940145862              4.319452545021235              0.8413934683968043
H              1.780917218623225              1.342656380594108              -0.10990185132616975
H              1.113772396739252              1.2756311107637195              0.34731561133080574
H              -1.3923791080836418              -0.4401954371440652              -2.398083481149487
H              -0.7368121404770787              -0.37888014599006375              -2.144615695838349
H              4.18431896401882              1.7426598171814598              0.6920858577033738
H              4.456158033849416              2.4298008705076515              0.749533893167837
H              3.62264365878148              4.387051580543874              3.141480243775599
H              3.8244269047042128              4.5744702000741775              2.4563480657693972
H              1.760132195817068              2.183995780485416              2.463812905061049
H              2.321249989305949              1.8184081725753782              2.8317090363212265
H              2.225174720792269              3.8684077444938483              0.25029183711321235
H              1.7572519685392007              4.092879945502732              0.7837272404840749
