72

H              0.9939976679330884              0.8415297510862293              -0.5595797571981352
H              1.6821006108512027              0.4994256144223968              -0.509263573215026
H              -0.9946867722200964              -2.2524098045457093              -2.40078580127466
H              -1.7099181367346938              -2.4764936708095373              -2.07923123541035
H              4.270969602063512              0.8445784568641143              1.3700781055601539
H              4.557283644379707              1.4161511232178476              1.0103563712619488
H              3.8492243442976846              3.6918711585833837              2.9258409906125302
H              4.097484146107785              4.324240468061233              3.1987569626089964
H              1.289674199391588              2.1309608977586527              2.785216006489917
H              1.6467639822587072              2.49812742922588              2.275325104558366
H              2.602707670845257              4.213151316841025              -0.19218409308013398
H              2.2241098448726055              3.8824788749491135              0.3623996071271675
H              1.0056897879195503              0.7015446437591455              -0.583540171641104
H              1.4931690381746339              1.043619836965392              -0.1959505733915745
H              -0.7993661725189908              -2.2654504108076425              -2.0159354581850244
H              -1.458759611647723              -2.161615887000539              -1.8415643659200582
H              3.8841208540660617              1.0030213088170365              1.302901541075552
H              4.061096495006204              1.5594781379474694              0.8918965474764166
H              3.9395217084823826              3.5591669822077483              3.0423519320827115
H              4.33080577969635              4.123026066651672              2.844625648304933
H              1.7353183723773733              2.238562767828139              2.915096530160214
H              1.4831899616027011              2.2568795472867467              2.242482870898516
H              2.8186449392673647              4.024042979695947              0.07595776566154006
H              2.1656798974107336              3.6997544117798973              0.23901731823334976
H              0.8669955830379764              0.8245058714632412              -0.31423828771416573
H              1.576745639102247              0.9932148816884476              -0.35399405124816674
H              -1.1107922833661832              -2.5118045695976625              -1.930234876805082
H              -1.7843930345932106              -2.3213419103574933              -1.8976494230238667
H              3.5309464013445386              1.2340225709673605              1.382794730835584
H              4.243553672101645              1.3935454012993358              1.1903394679572372
H              3.7574077641645625              3.7243293414473055              2.9243622493998416
H              4.4696470814171905              3.926006382745022              3.0180713762998574
H              1.8057961534657068              1.938237702305393              2.742820392356332
H              1.5212497701594359              2.247118722938942              2.0781939881946974
H              2.9594375664725803              3.8701771366703905              0.20749215395342172
H              2.190907833592027              3.874715464127298              0.29359797930610315
H              0.6609372017629087              0.9007655217093441              -0.3808441114879352
H              1.3949414562596554              0.9507187269414886              -0.35820445247675087
H              -1.2360901571801841              -2.4768410080287784              -2.2506683941561136
H              -1.9383211578121455              -2.68667032796536              -1.8888093795937808
H              3.809029031210457              0.750691535864832              1.2933733352092929
H              4.377879373792865              1.2986919122467806              1.4901343735223724
H              3.481313905137757              3.682786619563571              2.8999941507557474
H              4.01151957385138              4.1053409820722235              3.2050748989988
H              1.4863850677908426              1.9079863645900297              2.7500478992872552
H              1.2496878823399693              2.3153049814646547              2.1731387646566667
H              2.5160719603298314              4.046428647007329              -0.020500656435027916
H              1.9206543185868956              3.6924328471119936              0.25819772801342417
H              0.8274152110305794              0.9407878627773605              -0.5901297152708471
H              1.4772568781462836              0.9383996202399363              -0.22347453433689318
H              -1.4577911591254735              -2.2356795162229166              -2.3492226470878066
H              -1.8842006224021892              -2.7685236067766015              -2.099227792550582
H              3.639118873435967              1.0302862442634424              1.4387108680949656
H              4.296685544085637              1.0022652063828024              1.0169598881979593
H              3.580101253921791              4.1283644070623815              2.7621474191531985
H              4.180032775773036              4.280975059973427              3.1031024601507156
H              1.9587658426042796              2.1027285721397835              2.8453093457657337
H              1.5397816323297473              2.328469723538561              2.1888805221282723
H              2.42372275484463              3.8154966708703166              0.19879679060481434
H              1.7410309304811638              3.9743796509344183              0.06913269717068497
H              0.716263891797279              0.9983173920726388              -0.7023534230050453
H              1.398519679161212              0.8483161842344785              -0.43449766033722936
H              -1.3585374693664376              -2.1976836970332814              -2.3172072457885435
H              -2.027315051358832              -2.538452517641108              -2.170999177867663
H              3.9276897640231687              0.8594202377252069              1.123157313572267
H              4.379197234882278              1.4787622671377              1.012257357940288
H              3.567190825707621              4.036491981578855              2.935521525616315
H              4.233664344229272              4.3620815890344256              3.0900150356884004
H              1.6963781966986036              2.08307893307866              2.9520911422269998
H              1.2661716264638594              2.323659800674117              2.3420055712617733
H              2.613499110447215              4.018168087930105              -0.1305391902582163
H              1.9313869208967427              4.043152619965622              0.1473245291706865
