72

H              0.6555438266748811              0.9507050056876366              -0.35963059894998994
H              1.2685418022444064              0.9827295485344593              -0.7876200440568997
H              -0.9834110778449433              -2.459756707624846              -2.2034943702453575
H              -1.6993954147103472              -2.667731527252293              -2.2290159229209747
H              3.529558222108049              1.14992684707381              1.450716705611685
H              4.105351122679971              1.4171563766257393              0.9946477511395558
H              3.635134510012113              3.877426835358348              3.1459722805583406
H              4.275505451536824              4.067176156374803              2.8143687541120364
H              2.0375578736447              2.319006724596875              2.608048809169544
H              1.2785603500150475              2.1908343870495974              2.4441873178784914
H              2.773113219742936              3.5111745447389695              0.03245634890983479
H              2.1557184533528275              3.7689738495981637              0.2612492784508167
H              0.8266283281390981              0.838276824859278              -0.45836088727782487
H              1.5361452807202913              0.9248726456655839              -0.606531805514263
H              -1.1713731307545867              -2.610454330847011              -2.2544190161895914
H              -1.8243947825645372              -2.85280308559658              -2.123754943100517
H              3.901389127205777              1.017741301418143              1.4746419986558894
H              4.472771191428738              1.2935549697648179              1.2530079678115769
H              3.671270776302948              3.8293653382900352              3.169541792428945
H              4.417545931851035              4.055796043035635              3.02547076953703
H              1.645647243497239              1.9263224965104344              2.30311749362822
H              1.1655236683209815              2.496683372512635              2.4623146545013848
H              2.649123175479323              4.183823340279896              0.09120936150622318
H              2.1212487227497236              3.842900259508552              0.5348484368678554
H              1.3659678675537215              0.8964443516300034              -0.863066843641434
H              1.391556697464646              1.0294751951699428              -0.12589379165383904
H              -1.1852653754073377              -2.3162106833390763              -2.117731957975272
H              -1.7180560867988537              -2.7614686597257725              -1.9218570114131235
H              3.9777618506017927              0.7540832317502338              1.389589067410092
H              4.424528202524004              1.3290552666255542              1.143245107373815
H              3.9027006284366323              3.5907419624591816              3.281672838760877
H              4.306015802084184              4.228235487875492              3.0216429941274114
H              1.3237475039495787              2.081993154498908              2.842697739390086
H              1.2058576353197197              2.478220358159831              2.2332991993371953
H              2.401064781424791              4.226615782818516              0.22567969436759883
H              1.968578659971492              3.6265260906548527              0.14017550103293025
H              1.6704058400783146              0.7465386734247587              -0.744529394612408
H              1.5210177330478918              0.9770549068378268              -0.07300882198521867
H              -1.1736150728327532              -2.312017238279902              -1.9569940308388512
H              -1.9502364854607495              -2.4678144075199775              -1.9823623683807665
H              3.844037654661601              1.1958095552939594              1.3804687834778375
H              4.404901774986809              1.3642827808378455              0.94892900786558
H              3.9179145418048975              3.858504437197919              3.164640234850766
H              4.5737901884387515              4.151575390810869              2.9022926878432678
H              1.669873876330091              2.0552848970927884              2.7363472372989692
H              1.412842784994325              2.3902061373811483              2.194181952304154
H              2.7411973304952277              3.9502325835734435              0.2711991368205688
H              2.1438943467389358              3.891231759081505              -0.07300806685722201
H              1.2255625115107922              0.6452885188963319              -0.7517745746135023
H              1.4305310765307802              0.8691048366938451              -0.153537715737925
H              -1.1421121041220526              -2.4456562623586846              -2.1002393491103972
H              -1.8688221904783877              -2.45331743194491              -2.1769507568626993
H              4.0346949967458565              0.9888165423999826              1.2999493673140028
H              4.6086729530450485              1.5418103990626866              1.2644508402812842
H              3.710266598276808              3.5093030837698267              3.1494203742287357
H              4.024836171364506              4.191071984841482              3.171239591643958
H              1.2727551241324055              2.0623066965177825              2.8531017011172484
H              1.2006926715794792              2.3579709988488107              2.1750950365777513
H              2.786011537106041              3.791424032114785              -0.41318535764180714
H              2.3122551084064265              3.6649016291552967              0.13999496133878309
H              0.971613802734828              0.6144617952114833              -0.5087547877605152
H              1.6801196695017033              0.7224103098759839              -0.4575483369460412
H              -0.8347183901281893              -2.4909337253861907              -2.338335634698528
H              -1.5795745157607195              -2.6732250357676763              -2.2184059636034985
H              3.9683288661756193              1.1326914805937773              1.608803295749895
H              4.465617757295059              1.311553631356797              1.158647238368419
H              3.6432538229933233              3.588331371051998              2.9544682622153733
H              3.9917406397064843              4.242658045746168              2.99823899216771
H              1.8167375164542894              2.322868505539776              2.707562612623883
H              1.454955159937025              2.3727910686680658              2.07702806935074
H              2.7455760443405204              3.585865360223886              -0.203117270940241
H              2.237454916630318              3.722021382745166              0.2795342343988398
