72

H              0.7683396309281165              0.7029734842240166              -0.34925881737241893
H              1.465205645508516              1.013424944899104              -0.3424281735240444
H              -0.9748088566878832              -2.5789061722831166              -2.036242052433039
H              -1.6625574992396763              -2.8246758354178536              -2.121379098302311
H              3.5712823414018167              1.062756256810681              1.482093773159234
H              4.286992834396137              1.316352574872846              1.3666052729009939
H              3.665407672738218              3.6672282584108467              3.1785506114391557
H              4.310580496263199              3.995135620300906              2.9106260802055344
H              1.694224900758032              2.196375308629384              2.32287347754633
H              1.021914582744464              2.1628078309456473              2.6446746191326316
H              2.6958986669231755              3.5805788059877806              0.10588235230890111
H              2.049864811264524              3.7370154956807182              0.3231514582811146
H              0.7592696478281384              1.0195659283803793              -0.4083575875449051
H              1.4003600615822716              0.6782855977516061              -0.3789082106070085
H              -1.4193250781437206              -2.5304394906353322              -2.2419645844559737
H              -1.9099773945238614              -3.0664874331424707              -2.274029490244546
H              3.91031706097076              0.9969773829415244              1.5436734611792466
H              4.515792941423898              1.252203749692556              1.3373349912494221
H              3.596894620310251              3.9996823665021695              3.20838713004067
H              4.332739778123682              4.200316547241313              2.968414194879303
H              1.6225718743995257              1.8598404281421645              2.4718171144498267
H              1.2326090444687337              2.542976854037852              2.4356431685269015
H              2.6428106972141694              3.869939062879418              0.04166161936165378
H              1.9339878000557873              3.6865490533412566              0.25231140270476665
H              1.3823502705460624              0.5465408041282622              -0.7859621600520573
H              1.2146140032746544              1.0781639769806806              -0.29592496825771664
H              -1.281855749775456              -2.3875627280243465              -2.4174172598352928
H              -1.849715825831759              -2.7720356277363125              -2.1291601841998795
H              4.031933417304424              1.0027904851459666              1.3294047939930096
H              4.542265098034084              1.3542796898689715              0.897601764484152
H              3.6520811007313747              3.7481253440697895              3.2564413966427233
H              4.1998773544615045              4.287532641106827              2.9884792922527663
H              1.6726525414496562              2.184918147193888              2.5126009541259466
H              1.1122644902346996              2.608489996841745              2.3557039644872724
H              2.481655651487665              4.288467641011934              -0.019460841074612805
H              2.0627753227076915              3.728980399020266              0.18793063141025215
H              1.6991471447585997              0.7829632766667144              -0.706767722162921
H              1.3789141427109983              0.9441341311507744              -0.08623626414988786
H              -0.9622132346856164              -2.247948454423547              -1.9803107500279304
H              -1.6533962072721469              -2.578037444213586              -2.142562192741364
H              3.9934084799113863              1.1752371375916262              1.526015645526781
H              4.475150516604543              1.3879818464540612              0.9612740742566832
H              4.0797430077032635              3.5430844993643733              3.2279266200742316
H              4.424904803663164              4.194792989909146              3.0119644819830373
H              1.4788807096269034              2.261208161201905              2.8969960980146405
H              1.2621834092643553              2.4358949314295              2.212736032007724
H              2.8408953550070666              3.8567056613327706              0.16262388365103717
H              2.1370291399055596              3.7825818510784934              0.07211779507910822
H              1.150321124669876              0.6936942830826985              -0.7263127908147922
H              1.4574248374078362              0.8845874943472978              -0.13681433423446945
H              -0.9047861942755895              -2.542074042566606              -1.942060448472647
H              -1.6253595355958248              -2.37560032685263              -2.111410484739365
H              4.23644464320476              1.080149048479232              1.4775251430127583
H              4.422450977929684              1.7579418971679435              1.1806715771781413
H              3.942230641666844              3.617031254996963              3.3749386405941566
H              4.236904637037334              4.022586596804124              2.7596053987391107
H              1.377023211077737              2.1878343153226574              2.8175089912288795
H              1.2718611140588758              2.297073052196481              2.0842326309550594
H              3.0043075614149495              3.83727799181778              -0.15528417314759518
H              2.421653137559565              3.5461269580143298              0.20452187819231996
H              0.9788593182819242              0.6138896165482618              -0.5535263186683501
H              1.4758271908126022              1.1014999346944028              -0.40927573854853544
H              -0.8877284212519775              -2.6216494532551593              -2.228027434097045
H              -1.6767531369205515              -2.590658281178386              -2.1858893096169547
H              3.7231635789487667              1.3690734631403139              1.4897359152884535
H              4.303505169003688              1.2232773366991532              1.1079191745965447
H              3.710111576315015              3.4720134424853826              3.137624558213757
H              4.1538774432228545              4.037986053998384              3.008622280876543
H              1.8072087975348121              2.1480977951743214              2.5593667752842073
H              1.3392147965711827              2.3839716594826568              1.9952103163619752
H              2.8485538207833048              3.5912553612460236              -0.14653505458018154
H              2.4020431955235413              3.673311829235125              0.40736874301332027
