72

H              1.6804804841087526              1.832224266484122              0.14551748612548399
H              1.2602830814275665              1.4617682396680614              0.6236057772726042
H              -1.4085252570356097              -0.23105020216784974              -2.245513160069861
H              -0.7557262719628177              -0.22803133294687342              -2.1593978321474374
H              4.393913120517587              1.7240229117714407              0.9522456191139193
H              4.674630556974564              2.294073184033445              0.6454366968235511
H              3.4255002661988567              4.084061981824024              2.882651943092802
H              3.8886962812138366              4.541809081910473              3.0628097817411546
H              2.2089020333995717              1.5926787447334194              2.8497054309654963
H              2.5304202207410618              1.8207164967484928              3.5282522539280508
H              2.5279740992038984              4.206818377683534              0.3087360671955079
H              2.0500012577290154              4.048412397187332              0.8023907712039557
H              1.470033918080912              2.059599821875154              0.219305990330191
H              1.5273637720728501              1.3945456276768233              0.23127284585404703
H              -1.3010005118143193              -0.31319533877082073              -2.2161129872004706
H              -0.6386126996049398              0.08442869050977048              -2.339108777941956
H              4.450062283423366              1.8956275170633772              0.9314885827091348
H              4.268683625855263              2.379822145072953              0.3508070723780032
H              3.441762788652237              4.48972826514401              2.377317306022949
H              3.940965957186425              4.54341703752857              2.898310687216998
H              2.0546744741547687              1.4106929617741581              3.151980710875023
H              2.7086130777823225              1.7432444308009354              3.4052110356375347
H              2.4964142418539716              4.173377833063877              0.4038125265683881
H              1.9968890055683324              4.300495179934173              0.9163648766942263
H              1.6619982671095224              1.7363848178155903              0.1537150090582396
H              1.1821851032804895              1.253171118099959              0.5242328261834273
H              -1.392347008816147              -0.01004078727830204              -2.287818211343521
H              -0.5758624725949526              -0.08946193366273819              -2.4680330815089566
H              4.279284825643527              1.8644224890771002              0.6997500010805262
H              4.296959140296477              2.591157471476716              0.6766323145831034
H              3.4274670550891315              4.335678119985708              2.7108936344641097
H              4.018938131290251              4.799515253960433              2.794580467854661
H              2.2566220791919323              1.8129358034528174              2.729153635966205
H              2.919167710329454              1.6658848101027335              3.018143108355626
H              2.56377980078653              4.309190962613417              0.34663071401774437
H              2.036672813112058              4.530683569663159              0.8916253654515637
H              1.5962877238241546              1.7597971414050386              0.1337488591682371
H              1.5318343361075615              1.1711112070720044              0.6356024150269742
H              -0.9845399227425066              -0.08660487798131632              -2.2107228880847463
H              -0.43144167859495425              -0.02938507053737375              -2.6053778513531696
H              4.5419909508491845              1.8977714791269176              0.654147723861063
H              4.535211751606847              2.624372238728343              0.6970767789940803
H              3.6631978681658945              4.04934476504418              2.7079919043386096
H              3.9420688863002735              4.687804176827631              3.0503467717003656
H              2.281910943508149              1.406358335902732              2.543764640769366
H              2.5415847272396284              2.1139234444428885              2.876783581675844
H              2.518316561587175              4.237414224731962              0.18197044445030572
H              2.2044640971851757              4.156161445308917              0.8662856227590214
H              1.5975782206394278              1.7133864575439606              0.43022169852380454
H              1.700251940248855              1.0540767390662409              0.7214958211244694
H              -0.9110847027905465              0.1091376871051517              -1.969751768942527
H              -0.19861875061857645              0.0015358990044120789              -2.2646145188796347
H              4.488152514538898              1.8102378631372302              0.465811750449574
H              4.672600479633624              2.5301253856679518              0.3870986108806689
H              4.0764508946204145              4.031293547922669              2.638798746811931
H              4.020849627428755              4.475834486517543              3.2370285535523937
H              2.515097666098219              1.4257404795687265              2.7484695043199285
H              2.59715310710245              1.9364955733618865              3.1570860021227
H              2.4395761890467647              4.158633284881549              0.23596721698225018
H              2.202013649507583              4.190338697842004              0.9585036060979969
H              1.580154929131033              1.7971117931779272              0.3001417781715139
H              1.4938613112332184              1.4512660045080716              0.9130389554717921
H              -1.1746291229921848              -0.049556040184388285              -2.000619452258808
H              -0.43470822960039496              -0.12684168518275593              -1.803018110182327
H              4.46264707745368              1.690669697130308              0.39950393338492723
H              4.711263236520902              2.3969339339012987              0.3290167524364514
H              3.6854604369109203              3.908620023003678              2.887948848898457
H              4.141046308483456              4.478877482277115              3.1289981294888927
H              2.216796818146232              1.5424205666462247              2.9533943206956685
H              2.7607924883825605              1.9081262740010225              3.384268091951947
H              2.5621611108978968              4.323919255756556              0.24336415475443565
H              2.119720921942914              4.113115429674041              0.8141046729250441
