72

H              0.7207173932259854              0.6661806686252402              -0.514785736075181
H              1.3612563874164898              1.012723189598063              -0.42167335693426655
H              -1.5510671488696546              -1.5163468239090288              -2.4855280979662697
H              -1.6904316659592713              -1.6878918508014082              -1.7984365597288081
H              4.195651810071333              1.2744618816514812              0.6497838653864271
H              4.106088047725409              1.8562325902856682              1.127304765857608
H              4.070564742661229              4.247724297180429              2.4882067042565956
H              3.7411570561859455              4.22945365715713              3.1779580968435126
H              1.4465214599845864              2.0616579014874925              2.9728041178047104
H              1.2964453262678302              2.1049291374096337              2.2847801203267823
H              2.26645095848568              4.182626275851682              0.10261920221768753
H              1.8362284426058093              4.053492236110022              0.6959905550270047
H              0.8886091179932292              0.9684890943296479              -0.08991388753020987
H              1.424507803194438              0.9365023572231452              -0.5139283760130385
H              -1.2336700027780958              -1.577873692742237              -2.3293214330031757
H              -1.4088734837700554              -1.5397405553903025              -1.6544569832111535
H              3.688147654052819              1.3652765230847899              0.8933365916820035
H              4.166401089700193              1.912590224997613              0.815174884941084
H              4.329550279568639              4.23652828795588              2.551555669235388
H              3.81116082422402              3.8513701592859464              2.982464035046853
H              1.3647746380730306              2.261661084252746              2.7624681399262965
H              2.0121522983813236              2.0610579297260556              2.453265549004953
H              2.2646788727334393              3.99220167868              0.11473154218090757
H              2.0014178772363547              4.0907666277761745              0.7656852515628986
H              1.063235866233146              0.8190336692537681              -0.6203576681196917
H              1.429393488079866              1.354986022024039              -0.35764235396806776
H              -1.2508452596228234              -1.6576690922241457              -2.1826254894031902
H              -1.6125464636920996              -1.739123998983275              -1.5283631524599612
H              3.768157698066502              1.3356372837302422              0.7586385566026339
H              4.070385311827314              1.9293237467521505              1.1681734813363414
H              3.982151427344735              4.092151709277841              2.4047697940627693
H              3.8856642397778667              3.9609531398035216              3.09809062142
H              1.2943432245165667              2.384149802897117              2.7109536735971296
H              1.7196184155744767              1.817670008720708              2.8224499979126167
H              2.5733961139874              4.059735646811523              0.49455643937500304
H              1.8788118483780476              3.8420614122737784              0.37927927259971955
H              1.0923965069096495              0.6404803240178601              -0.7212850564038659
H              1.5148752726752486              0.9957256980865266              -0.20845082069714488
H              -1.6798826832599376              -1.8655534746659723              -2.5570792306316354
H              -1.7878145925064097              -1.9926618047210776              -1.8177526150673122
H              3.718169004398253              1.2690492736533812              1.0861508783892546
H              4.427432913129231              1.571260474410304              1.0396992617313223
H              3.7210259778550556              4.511603045328987              2.481878657570318
H              3.6744440912524396              3.928944613448075              2.9554073013727566
H              1.1914449305336243              2.086806434432069              2.6372326753032116
H              1.9524503852723019              2.1617138762334327              2.5827508564192883
H              2.4710282660564564              4.0799756907656              0.5595300034504659
H              1.7158027142804377              4.127075206741952              0.5613022104213391
H              0.7588967576238133              0.8810204622692402              -0.4102976261823358
H              1.419909013982392              1.0478920323676846              -0.31553813664350555
H              -1.692599787001561              -1.578140892713583              -2.524819157902338
H              -1.759618588280385              -1.9898060824615462              -1.7991791516540296
H              3.301995592330499              1.1925286824174306              1.03384777313624
H              3.9015984527706427              1.6748283486274427              0.9369762419426295
H              3.8751145877751485              4.616700286913388              2.5247108475117113
H              3.7179926238848804              3.990989420588697              2.842439613829582
H              1.5380823919534137              2.0317458384732627              2.9454578233988946
H              1.6473774823148035              2.250768670741791              2.244602684593311
H              2.058761789721513              4.002637710834498              0.4493747198426349
H              1.554324325935113              4.186315184419448              0.9000454812176414
H              1.1933268014829013              1.0780852114448836              -0.7028654798989274
H              1.3563927056522824              0.6032591285455503              -0.19547208206507272
H              -1.652410393619131              -1.3800111173266456              -2.3528103241483826
H              -1.9166706765692183              -2.0824815216302155              -1.8830919979229466
H              3.654641266866169              1.2271423291605696              1.0136419930333196
H              4.012097174496445              1.929642417720132              1.1546317475640053
H              4.123035321755378              4.611758978910833              2.387010574280203
H              3.9668208616833156              4.195930178185642              2.9906254859626014
H              1.4205061834116215              2.140347902285875              2.8139353642952316
H              1.803991161318372              2.0427677032387797              2.2577459753296982
H              2.3046516444455984              4.0706144624039675              0.6461771240116495
H              1.6268785955957135              4.296305996715101              0.7699468361781665
