72

H              1.4577393297117955              1.5858039466576577              0.16448634063118733
H              1.5025199413038692              1.1128295622062203              0.779436161777951
H              -1.443512513918138              0.020735973677626886              -2.020238175107553
H              -0.6866787003896915              0.015018914804702998              -2.0420426429558174
H              4.26732450318588              1.7395820900743815              0.42518341586825414
H              4.275327256506414              2.4510601177068767              0.4020497062208174
H              3.6332816718540086              4.018588696491771              2.572106637822746
H              4.028653504186089              4.494403234379441              2.8591819546669393
H              2.0376483495978452              1.7859973547371486              2.698346935967451
H              2.63363151068404              1.5562098277176646              3.161046255770705
H              2.1472740312321372              4.074606702080828              0.3909768625612267
H              2.041619261468324              4.4733070983571075              0.9262644534281358
H              1.5379684292195035              1.6307532860398588              0.30679354890386895
H              1.1188452689905404              1.173924936952493              0.7148019520892489
H              -1.3971811824292588              -0.10672760277783347              -2.3183035956681146
H              -0.6605815218156241              -0.14603789845930576              -2.164042068070022
H              4.176828310296771              1.802642563037244              0.7685691945329045
H              4.710829087223618              2.323141492969233              0.5737816986077372
H              3.4713375891459464              4.003144334427435              2.95625348801551
H              3.907636550324977              4.572581970208278              2.947878029316388
H              2.2410995105458515              2.1142756494948496              2.391132910876663
H              2.487026940098472              1.5812401124498814              2.9111282185185674
H              2.415065432916014              4.177842572830908              0.15377252984731535
H              2.0939740627294317              4.34841107924828              0.8077951380654604
H              1.6946237659398389              1.698262483527234              0.06792631610973848
H              1.2115353145678462              1.26736736421296              0.5642590001642805
H              -1.1254169119986035              -0.3551313433883972              -2.324778811172348
H              -0.35359416253542897              -0.015731988026293886              -2.2765483139728366
H              4.407460675901134              1.7588533898872107              0.8027652339748954
H              4.632994170299706              2.449265512853847              0.5833798710727515
H              3.532707911240745              4.033199970076872              2.856137839088931
H              3.822521531575113              4.71302072954903              2.9342587707278165
H              2.056140045092957              1.8434250131732846              2.5119864214757004
H              2.391547503465607              1.9286236449077585              3.1615725471198273
H              2.4565704395275714              3.9140487847458583              0.16165588858452723
H              2.0559313425602173              3.8741564620939957              0.8132400732476969
H              1.4848772024033623              1.9469403275745556              0.18078568768581646
H              1.2974857002119269              1.2009099826671616              0.3668728914647327
H              -1.262967220821667              -0.23931432806461217              -2.3742434652570883
H              -0.5334192224334225              -0.31878236176082553              -2.1725411356634554
H              4.545278282963759              1.7805402899445142              0.6373926972903536
H              4.636529140036256              2.414817276816752              0.41463344824252846
H              3.5565869202995843              4.273160537746793              2.888024780070948
H              4.100408594368221              4.734434603621023              2.6696074126618305
H              2.4719601713330115              1.631584286459756              2.672064173699176
H              2.321641842016064              2.1236347992217897              3.2410656268879503
H              2.5322482267857884              4.0588111016284865              0.5661106535897761
H              1.8433823986564253              4.2288545172993715              0.692284416252215
H              1.5551731862247502              1.9454934208819847              0.06833592356694558
H              1.292761168235355              1.200841672065106              0.26123599984526663
H              -1.4521201864422546              -0.24659252221081368              -2.272097648420883
H              -0.7949086324677294              -0.47742738117734246              -2.2609524658667506
H              4.227637111086034              1.7864215207987069              0.5563136656233237
H              4.553439667113213              2.3893019439688086              0.8089647095924213
H              3.4584399198397584              4.087260254852245              3.05802161398843
H              3.980352783160053              4.51950785351826              2.693303550043989
H              2.052803043608026              1.668820193689309              2.697410945707122
H              2.3427771682228204              2.0787537534973883              3.143690778575483
H              2.3363291486085256              4.277679410351397              0.5074256683880877
H              1.7802124530603605              3.8985501176126274              0.8103425935955715
H              1.3992913867044292              1.6542377565917896              0.06663123078001805
H              1.5678194042079039              1.1502718891719452              0.5415754508671493
H              -1.4021498815722815              -0.17972233959241848              -2.054529753940488
H              -0.7838871784707602              -0.2910128089091644              -2.397918746223957
H              4.364059605541893              1.6987727363341638              0.7936783321522067
H              4.515426046861306              2.463663969262049              0.748810068079826
H              3.708741337833008              4.0514513460797685              2.4690468569195603
H              4.058045614881338              4.493660438736854              2.9074035129038167
H              1.9401865254005177              1.2945030901488463              2.852955321641244
H              2.444273208669528              1.9302821223531348              3.098720162193207
H              2.1096998709522143              4.106540550530138              0.46854999413531134
H              1.8979621171888257              4.332568913193025              1.153861470879027
