72

H              0.8953109756575373              0.6237695786395066              -0.3960536794447234
H              1.5002048268976318              0.9743761158275985              -0.18275256041734675
H              -1.0169371984216324              -2.632281585480376              -2.0293455560156928
H              -1.6661613381619114              -2.8733556606443558              -2.0945810033848136
H              3.6757867873180783              1.0339722053933087              1.504379816095898
H              4.416526546722375              1.2831485479455422              1.4667542297464884
H              3.6846197569183707              3.599234341966577              3.195169277351464
H              4.2718630039906715              3.9934598591698536              2.9608054902115897
H              1.606620474534052              2.120047490923671              2.232689135435356
H              0.9020229913236489              2.2112993889354433              2.6388600268444327
H              2.7112833385293817              3.6609584115485982              0.06868819544552657
H              1.9997588266179323              3.7254754526841145              0.37243690664447143
H              0.7975484918072051              1.0412139978821189              -0.4351164622387047
H              1.3981880387838306              0.6315832350580776              -0.29338252498549755
H              -1.3991993074659301              -2.4298771944460804              -2.2240068758066265
H              -1.9339932902962045              -3.119497407961799              -2.3060936266252736
H              3.8529750706055395              1.017748712757186              1.5637866949706611
H              4.507812718634381              1.2405259291337165              1.286447814520528
H              3.601567966463807              3.9905524168669984              3.2042692793697105
H              4.279833666780426              4.242116544726346              2.9513268961941206
H              1.658768215712182              1.8973441678580458              2.555256588920183
H              1.2344248099610526              2.5473239243378045              2.416962010018547
H              2.6053230665851              3.742289564519394              0.04431380131464102
H              1.9166500010743392              3.643798969123623              0.13219764148127264
H              1.293460431810067              0.47375948587458894              -0.6712108375425594
H              1.1790135532800017              1.048675177336291              -0.3312607976761472
H              -1.2773870558213918              -2.4107564192816495              -2.455667705607252
H              -1.9036254214269432              -2.7780171755047807              -2.210986227152425
H              4.021971045979808              1.105264891218788              1.3488716014943785
H              4.566095284559626              1.3983040442847998              0.8681767563845305
H              3.64031538981118              3.854884048500643              3.228744084552858
H              4.165481722675291              4.240654053218739              2.974203058500863
H              1.7670947315071732              2.200017968148067              2.4014400228959283
H              1.1063056168540841              2.5994108528369035              2.4247103512375885
H              2.584649744798708              4.23460692904356              -0.07874872706064015
H              2.1065256100719316              3.7510295733353916              0.2029405563937839
H              1.5710574529340062              0.7703411659722761              -0.6969155153972193
H              1.279581578082854              0.9580474867160286              -0.07939406454679976
H              -0.9515776521929853              -2.309249913841541              -2.0658370416738103
H              -1.5307895612979157              -2.604358400061478              -2.1908419165062942
H              4.120199087749817              1.146920650342467              1.520529312141592
H              4.475336217135796              1.4064119206026369              1.0382593585990982
H              4.072447114291559              3.4722539889523025              3.2502975253671154
H              4.296392638652074              4.175943145833717              3.0488361332759304
H              1.4051634450753598              2.3139298702973714              2.885793017754353
H              1.2119258140394416              2.4605363694588394              2.2223525224723892
H              2.895820899835951              3.8658016968129862              0.0696625891211857
H              2.1154644864127827              3.6992354654215753              0.15802988817049216
H              1.12367890019168              0.6899494049507522              -0.7277510584559352
H              1.4776669225096903              0.9586906689272834              -0.1166154455338361
H              -0.8252740203741272              -2.550198342022077              -1.9205374752713387
H              -1.522303181591586              -2.3869620957914943              -2.087166461252948
H              4.203568389385168              1.1485936220003197              1.5347011464719962
H              4.336770995245128              1.738675671535211              1.109831966219164
H              4.020321790786814              3.661517651568785              3.374347013418176
H              4.319769032455717              3.958937583001626              2.685470911487152
H              1.4890876584208421              2.257327781753076              2.763176471143674
H              1.3232228594635569              2.291527985994645              2.077108935836635
H              3.0443624422958124              3.848456292078066              -0.01859545341233602
H              2.406134260300511              3.534790054066626              0.2478848381072768
H              0.9758323647211586              0.643227199502122              -0.5521625683703832
H              1.359626574846512              1.2216994632360052              -0.33590438979004883
H              -0.991762252938782              -2.64554671090147              -2.119873075568221
H              -1.6658899723590919              -2.5686260159761125              -2.173782580245463
H              3.655621267866945              1.3966873034247678              1.437309178852182
H              4.263164533371467              1.247149976358369              1.1245865093161596
H              3.756720684652587              3.460634176279613              3.237585003723665
H              4.272458978659382              3.9829837597725612              2.984001275126927
H              1.7067257426011209              2.085702568579238              2.500050349867265
H              1.2734730142012296              2.335513896318346              2.0724430371543443
H              2.916322242090938              3.6072545110342613              -0.12466260192312596
H              2.4010156843596286              3.6694907249778725              0.45047466381946677
