72

H              1.0469699487637487              0.7501328522745228              -0.5799889090080242
H              1.676140146642066              0.6333354449075541              -0.16999506145839482
H              -1.040179294167497              -2.1873994470057867              -2.247628639141515
H              -1.6700605357940195              -2.3794019964615676              -1.967823819831376
H              4.197862367101954              0.8196233059612772              1.3446052969461395
H              4.5301271832471635              1.4317032366658409              1.0370783736449367
H              3.962742065055347              3.6757727106740776              2.83738741025737
H              4.174061849343387              4.288181176004165              3.2390524200193394
H              1.2591561481087306              2.0780655974325097              2.853215472516541
H              1.582668263021081              2.4407304932438723              2.2785610745809817
H              2.5903286070384497              4.2873491791540905              -0.07219970600266831
H              2.1038911956276745              3.926400303622705              0.319250193240809
H              0.8225957583559359              0.7811928114351303              -0.49682006607530405
H              1.470573193016093              0.8860481817626599              -0.04476602950691066
H              -0.833766509071956              -2.2275557870617675              -2.015026898144904
H              -1.6329136932495147              -2.1164933056023107              -1.8576382838973635
H              3.990635535954606              0.9461923421578236              1.2563333283707157
H              4.124273628268672              1.6263630628857397              1.0033992741804367
H              3.8849632438197195              3.5803982831701546              3.0012560598190294
H              4.273511686687967              4.241071194917993              2.8832882234357022
H              1.4249514855193188              2.18184292737095              3.034032782092177
H              1.744979361108194              2.202892770380154              2.2171669096537983
H              2.8670387722953854              3.920744138678898              0.0009176880406741429
H              2.1429978057905443              3.6854576726424333              0.07476222521035594
H              0.8551316616358796              0.6518614881548754              -0.2699040161979009
H              1.5042609483492737              1.0079028277810302              -0.4634179738272809
H              -1.1014254702636597              -2.5481846921156888              -2.1373014304667888
H              -1.771583782751253              -2.225321127669071              -1.9329650625998385
H              3.5825243027699702              1.271866088690149              1.321129888639266
H              4.255162488169469              1.3767490872348462              1.063077276224959
H              3.603953866862727              3.768726858551408              2.793921042113823
H              4.295068492603852              3.9429974466262707              3.049989903649613
H              1.9733937831877646              2.0149343068427483              2.6151134268605136
H              1.5731888640350562              2.294430163354297              2.12116869423717
H              2.900289035142885              3.8916198996714284              0.016564194192110884
H              2.2691576646065217              3.928997125669741              0.35864548348708625
H              0.5877519077383492              0.9987905426010244              -0.3123032017312768
H              1.3200939355212842              0.9607330850094703              -0.43975800226673595
H              -1.1855222970737245              -2.3946151823169517              -2.21799159240644
H              -1.7824158596733644              -2.688056629564551              -1.936981550607027
H              3.687390364472928              0.8270948541991345              1.3272218344343585
H              4.2238707248199745              1.2451233029818336              1.4563798544727784
H              3.5371960070288426              3.663023597466338              2.8093534634787485
H              3.9817534540753057              4.086316809103615              3.2452230049350757
H              1.635785619535548              2.016535437085062              2.8536617536467666
H              1.2255651852529277              2.2360287931096128              2.2070625988990105
H              2.5055311608010173              3.892894084227577              -0.012864512540403522
H              1.9103446686335444              3.738511503957625              0.3616044814586413
H              0.634091708513303              1.069247464580557              -0.4236926263029804
H              1.4610923557898066              0.8325279026315799              -0.3820565771384304
H              -1.4611605545237916              -2.2691177432367273              -2.338887311812724
H              -1.8853998632729276              -2.778115071544269              -2.043808864048279
H              3.7130191661207377              0.9651985066425535              1.4537708471300221
H              4.306683072565524              1.1237481787065502              1.0838454952933296
H              3.520438362364277              4.196913470372568              2.776840589400003
H              4.322305458011046              4.311210945157483              2.9906318345179326
H              1.9033392509645226              2.0522560485430024              2.795986961280726
H              1.5876124899970916              2.275477722446749              2.2319736836247914
H              2.464302635749833              3.9705674928313184              0.3622363746067575
H              1.7573938636084439              3.9936311581105235              0.10687875545484926
H              0.7180784786001936              1.01692385328051              -0.7629342675358919
H              1.3638097527081574              0.9531391472075186              -0.39383756079402465
H              -1.478959174034387              -2.1530393899486104              -2.3737600081286363
H              -2.049486084912489              -2.5037586370963933              -2.0963684190632845
H              3.8520001455258535              0.8714882335763672              1.0570073718476447
H              4.308550777487471              1.3633988132837682              0.9195436498636197
H              3.588977428161536              4.038872561476253              2.906975219196215
H              4.228050328978322              4.299365971348962              3.163964119192876
H              1.6473100592911643              2.007830245459703              2.874308339027825
H              1.3535200405289742              2.3853829461274496              2.342102844057464
H              2.536867652180136              4.18155498283765              -0.06770333818090296
H              1.882618004928505              4.032779138461703              0.22017456865631876
