72

H              2.21066643571512              1.443822501071588              1.0960838157904675
H              1.679063655374755              1.9156454444764657              0.8530319527235924
H              0.5670481292506427              -1.1165498378771321              -1.9464152283718157
H              -0.1088031011837952              -1.1556986690712427              -1.891172996968466
H              4.901418046049782              2.3097916004014905              0.7399204547117879
H              5.197456436705929              2.4805763812059807              1.3854810850904764
H              3.6665148991682117              4.645152533220501              2.682783886865228
H              4.3716870597691795              4.748462644935063              2.8118896002197182
H              2.6649099596799437              2.468224051555504              3.34748284268823
H              3.173114787244493              2.0542203768701963              3.799603464732751
H              2.7365507718073183              4.626781001654642              0.5388438460730164
H              2.7010707187862875              3.942292753507772              0.24090181413938216
H              2.23139813415012              1.403993445174124              0.9304994141834876
H              1.5557767329013017              1.662869661470373              0.981931516407519
H              0.3810728229951125              -1.2625059578156712              -1.845774819471572
H              -0.34568773495529304              -1.3108077436680428              -1.8668609506836238
H              4.931026685068436              2.088091271395033              0.7851844855908487
H              5.010507576005934              2.545566663957162              1.270763837965658
H              3.8823834957348313              4.466412997879717              2.6362887298948396
H              4.205302354557793              4.609782856270529              3.2219777390417734
H              2.6704238459856695              2.3722881273073897              3.6790348490831684
H              2.839241300430429              1.816945410483569              3.992637504511352
H              2.769495803206721              4.56344451694026              0.1588409859202525
H              2.952251073133293              3.820960622386253              0.18901482659801094
H              2.1681380941324147              1.4994158325095508              1.3111411565510787
H              1.5459667270845638              1.6336187241365598              0.9037975503603914
H              0.2195107413149044              -1.3508260167759176              -1.8866254422531594
H              -0.4280947658101244              -0.9523690744621601              -1.752478478438245
H              4.977754584384888              2.1555968680323168              0.8671149215935994
H              5.242622567952388              2.412450777013591              1.5159332434774087
H              4.248697940952659              4.632497640704584              2.5166962195436695
H              4.220920666650858              4.767024698630677              3.2768616435585307
H              2.288845993324474              2.0644664707891143              3.7186050241360245
H              2.888526556611955              1.9151043444671627              4.001583281349989
H              2.833612671891537              4.513377953358124              0.4172819275264292
H              3.08256001667234              3.830471067661716              0.4881144940260086
H              2.1658891615434124              1.352686376050885              1.2834011049209368
H              1.5073478378799547              1.6552561432741082              1.1052294593358563
H              0.0979940822326612              -1.1061451164049012              -1.7297425960776975
H              -0.49624922809851824              -0.86240751195656              -1.3773522676836991
H              4.691776526234565              2.0988711915702956              0.517938686696599
H              5.0034181667206905              2.5225469408105736              1.0765878731391707
H              4.028114056035319              4.541635828220796              2.664071383288669
H              4.265776322821276              4.968100874354833              3.241934161717825
H              2.2998171018054405              2.5095155541921788              3.674553920402938
H              3.0282680795713675              2.3679485064313672              3.6879652746115226
H              2.9710594896470166              4.442738452072341              0.29669721894317047
H              2.912513715090993              3.902358169141522              0.775552484078456
H              2.194411914363535              1.910497213315547              1.0111580848432598
H              1.5807663269511312              1.5442864550773043              0.9733442888104623
H              0.029263774427628033              -1.0875393532188635              -2.0050225425482404
H              -0.6699283897460815              -0.9346216294554793              -1.6013716296168798
H              4.576673595299287              2.0273443779492135              0.788543477724292
H              5.040256932981375              2.430586915854425              1.2279407157515985
H              3.7150614267941497              4.973892482501277              2.415057316665249
H              3.9635774588952692              4.8604251265322524              3.057613278089647
H              2.4792613702546475              2.486637479026101              3.956347074118546
H              2.963155101084719              2.1179170356807773              3.549808320921992
H              2.728598814285              4.182335552692176              0.28663909034417
H              3.222801872836521              3.9524649909041867              0.7377657460320064
H              2.3866504720462745              1.438787064702765              1.1740645571310768
H              1.885370808753737              1.4506455349177256              0.5946082199329775
H              0.3634650585392603              -0.9367657970302965              -2.1909398647914524
H              -0.20208500813876104              -1.207158830019301              -1.846889426336657
H              4.907779321405391              1.9470983967982447              1.1300772232782417
H              4.883549673193572              2.590495312778808              1.3425692970957623
H              3.666756596114097              4.8440652591827815              2.3357112146080103
H              3.992097734102221              4.734872808739122              3.027226418975124
H              2.7707593647783093              2.701468331553716              3.5782234890492934
H              2.7598700910135587              1.9963596123250547              3.626198578500318
H              2.6140479184152845              4.411966154844356              0.3625836306417414
H              3.017306928036601              3.7694908347938503              0.23791962402713318
