72

H              2.292071779542604              1.7112116948826865              1.1317984823547738
H              2.0376380432835344              1.9416817405941897              0.47884003304281614
H              -0.4451620299356783              -1.288639204565978              -1.8094978222432316
H              -1.025275227053947              -1.6293482098563024              -2.135254351967906
H              4.934554392381712              2.2056818148722415              1.5323554883042034
H              5.125292881336429              2.8875094652391233              1.4735349498918657
H              4.458866996974726              4.958651100653288              2.4688217433461794
H              4.301945601750122              4.332959377368497              2.8653869301506165
H              2.6212112844862454              2.0131244582400036              3.9219644109955922
H              2.9224195978502587              1.9892141395255012              3.2290355645734157
H              2.972215778184723              4.44267999489354              0.009787063348061465
H              2.8605510681286987              3.9850819859989897              0.594942756772615
H              2.3433582396515016              1.0470073889113827              0.9220111944061523
H              2.0572763425842218              1.7066907454796336              0.9175684855897733
H              -0.44463150464732476              -1.1852231564557638              -1.9410955397181395
H              -0.9099356847248994              -1.7120950989053276              -2.1316149778144227
H              5.077324204878648              2.23661298977975              1.3441450313810486
H              5.243993538466451              2.9716243823544524              1.1824223811306702
H              4.478219033646191              4.939600251954809              2.6017688821897997
H              4.290808572430952              4.370336888275841              3.040314580581347
H              2.3368901698128735              1.8850128522012588              3.7593841442654727
H              2.8421943576586868              2.2414185092968046              3.192574152613995
H              2.7986505803453              4.274571886670455              0.03025903757872347
H              2.5400800863355055              3.9003468748147405              0.5755018175348439
H              2.3694792477279796              1.356453940434838              1.031562090155689
H              1.7551632635026742              1.8424038363086688              1.148893950981045
H              -0.39087755704120203              -1.2027185830995293              -1.7078132420441197
H              -0.981404700580242              -1.4927890149996654              -2.200887142668567
H              4.8505367909095565              2.3231666619885973              1.2227844151191836
H              5.2381019968052325              2.908911254675492              0.8973230520342078
H              4.434361340101782              4.849022026516571              2.544380706504312
H              4.388955657299841              4.5529089176309805              3.2122605770770334
H              2.5216627190767884              1.9018182944621667              3.857600569250755
H              2.838661250366756              2.367288370402366              3.357374809805673
H              2.643990094297911              4.549351407256127              0.43862672745498
H              2.895013869949493              3.842371907723143              0.3881107492745735
H              2.443505629068693              1.4773406042001962              0.9616375269128624
H              1.7134746917011916              1.570839510527282              1.066198722368818
H              -0.39576779142589685              -0.9859399876863081              -1.8285402291834363
H              -1.0735596726304275              -1.2355497779261695              -2.163511297679996
H              4.669051443000517              2.089061628024027              1.1567712026937094
H              4.965938700529265              2.711648256895414              1.1483332599991756
H              4.241912675566304              4.949789649013628              2.520788025147621
H              4.371748463936081              4.630646741478379              3.1534003424968633
H              2.6973057317971683              2.031761244923815              3.8107665318427415
H              3.1447982714779723              1.859421604490067              3.252186524545607
H              2.807236067848809              4.374220254438106              0.4812556649056307
H              2.836392628611057              3.623102248156467              0.2842697716471419
H              2.3930687319491932              1.7368428598149233              0.9324079026266782
H              1.7617893635328779              2.090307305664186              1.0983979044659842
H              -0.1078650024982111              -1.0423422024328766              -1.8757501493724942
H              -0.7639753867203083              -1.1185605919351094              -1.970989284145331
H              4.487768713588716              2.2105420983130735              1.2913011663744107
H              5.059044762150564              2.5975327418189833              1.1921230189431316
H              4.187340656091909              5.018787632085265              2.6217301256441305
H              4.502710779195399              4.494855093254834              2.962579649936472
H              2.8626936217922827              1.6638264625520787              3.507613907334041
H              3.2512842873216368              2.0014190984292757              2.957945895808666
H              3.1972156523144863              4.432651873644993              0.6223342618018312
H              2.781003792360404              3.8649258431283764              0.48045061485171037
H              2.0464988890628697              1.5388573277688975              0.8741919588523487
H              1.9256126253131773              2.282537253458455              0.9044529188675111
H              -0.18069769771795607              -1.1173470859538932              -1.570343283240539
H              -0.6808396340029834              -1.384197969805692              -1.9019691173442792
H              4.70640000531408              2.203188279905543              1.6014714516975097
H              4.868961771922906              2.6186700591292236              0.9742708832694382
H              4.238622415016585              4.870317306998087              2.5613479915942055
H              4.4354678235298755              4.310536553188646              3.114276178206992
H              2.892113744384664              2.4529844204957345              3.6119421307492554
H              3.0010555781236468              1.9241070573804744              3.0504468073780995
H              3.2386678653355427              4.516256421375645              0.35803485539498503
H              2.928501908258999              3.9227027480393923              0.3562332275735038
