72

H              2.3316300852926433              1.4235166737601606              0.5442741362537197
H              1.7640949900926717              1.7559620271377845              0.824035636807333
H              -1.2109861998357254              -1.3159023155362317              -1.5738816373196023
H              -1.3886646473986417              -1.6318416085757343              -2.3546868627954844
H              5.179571442969131              2.4102344158663596              1.4229143522824017
H              5.081368772231902              2.4252343262297216              0.7321948948220293
H              4.7362945146881525              4.572958593604635              2.9385228344961623
H              4.453972733872087              3.9319118463664395              2.8244156962373745
H              3.1972656515316062              1.8002348821895982              3.731706543567748
H              2.5835839434909134              2.2945031133273797              3.399670527472183
H              3.2056250485211555              4.7937625016959755              0.6572708413530537
H              2.863904375983011              4.36477335559251              0.14632965805743384
H              2.300079303422497              1.1571733508435433              0.6191163721359475
H              1.6955698809378892              1.6471438218938383              0.6819192307341126
H              -1.4852142781878146              -1.1407983274819447              -1.7959556954033271
H              -1.3293997883413662              -1.547124520734661              -2.309066509024073
H              5.338526991093802              2.4414007420564805              1.3565573480511701
H              5.099731124048894              2.5589390742762914              0.7141062715154802
H              4.501753703729998              4.886114142444293              2.7170572177192454
H              4.579947616949724              4.158388350429254              2.9621987660494162
H              2.916669673974697              1.9079196878491893              3.9301835130579392
H              2.910514392695665              2.6276594101317863              3.6711259064637995
H              2.9356720183712004              4.519620724681215              0.7518761119745586
H              2.659894310010476              4.361086182525033              0.0784743419894003
H              2.540368037474077              1.1928554191738343              0.7888501525509615
H              1.8655572460751837              1.310298124572036              0.6444844273565088
H              -1.352258717821658              -1.112354675791246              -2.108598938752216
H              -1.2109340974406717              -1.6339465148552903              -2.5453095256191505
H              5.030069369892147              2.432358821104306              1.1392283136768049
H              5.233755530825698              2.6207419193585175              0.5029741715230179
H              4.2485873720758685              4.989057788970682              2.901722584496798
H              4.417613559444017              4.270971575661812              2.86328227554776
H              3.3451125652209828              1.490088807186025              3.5656168519156655
H              3.0356162229762442              2.2585244166745766              3.6124369884459018
H              3.010765449422923              4.452832988817503              0.5720672182600142
H              2.3423140530699946              4.289878244700569              0.3581328370024345
H              2.4140605091114637              1.228183802682072              0.7367618614151542
H              1.8302135336249852              1.658733606551703              0.7855605560498968
H              -0.9712400588617648              -1.2385585953496288              -1.9864859904334324
H              -0.7744479304539543              -1.5639307733670242              -2.656650744548052
H              4.9044356312893695              2.392437029042415              1.205930472837345
H              5.250468769327409              2.2804412296359864              0.5189125210229101
H              4.102925820605649              4.801018306782463              3.1326309929735947
H              4.427636184123186              4.150758000427642              2.9751739298923177
H              3.1803812042028197              1.7231365967765035              3.7187604488228705
H              3.2550419888735638              1.8349524375476298              2.979462819471539
H              3.1661780021818835              4.314475824286674              0.8033135642440786
H              2.5873836107407673              4.1151800463663974              0.41580980098066894
H              2.226916891329107              1.4697521501985746              0.8666878491741704
H              1.9639482062481033              2.105413572685188              0.624259639561353
H              -0.9642901615383562              -1.4353979625426068              -1.7352466649230551
H              -0.9373495956850578              -1.3891330396022465              -2.4058571009857928
H              4.76638258650578              2.1404817170407804              1.2561391657078655
H              5.027262613938079              2.442697113659986              0.6391837811567217
H              4.435183393182171              4.598045588262336              2.7665223286268295
H              4.6764538362228905              4.065155675943737              3.305886248724302
H              3.3958208537978156              1.5590411353740852              3.6543400749084776
H              3.317315132038883              2.201752547129258              3.291597526902624
H              3.212180440405942              4.651297442239152              0.9142736284371328
H              2.8766199570435593              4.3998807956557595              0.25826691744712527
H              2.1133416913545338              1.7364659081857952              0.3388237096196653
H              1.9429097060473954              1.7733915028125984              1.0091613149661425
H              -1.1890123213258434              -1.3620653433493812              -1.619394067782961
H              -1.4804750275694036              -1.3534515362480455              -2.351813039350804
H              4.880059845006915              2.0971810159367363              1.3521447826314235
H              4.967653508898089              2.4988894425805688              0.814521227274594
H              4.578699583370117              4.632827702948406              2.7309744597685954
H              4.625969760633846              3.995527111291913              2.942250830074663
H              3.5324293900142916              1.610900323866114              3.663657676463633
H              2.9822326510299946              1.818292761906679              3.18371942732518
H              3.1942799735898837              4.597159174612885              0.8152374014756048
H              2.789563474747036              4.27504022534249              0.2862476459922001
