72

H              2.0676461340187653              2.260881542055145              0.304184534633124
H              1.8921757210361099              2.1012269867103877              0.9621870788247674
H              -0.6860102407624046              -0.14739004843048836              -1.7554679825748993
H              -0.24656410807970447              0.26954976726602087              -2.0930492281287743
H              5.093834499433819              2.248565871968234              0.7953218726013359
H              4.646182275009395              2.2266871368289185              0.29036884594979634
H              4.009799076001612              4.714181128645647              2.956189807275166
H              4.244845376287729              4.118381313939877              3.1837250851084065
H              2.7191661601024726              1.7867474919097162              3.5124598425941502
H              3.423941580459336              1.7119359430479082              3.315793246766954
H              2.9160390056041483              4.378940516546957              0.02435036672793167
H              2.6286198803856586              4.599887184049785              0.6262883919218383
H              2.361633742046413              1.9064837853975114              0.3261182279376064
H              1.679814868459922              2.0292287336396795              0.35818128907831925
H              -0.7606030033438209              -0.2847957439664131              -2.1194357267065373
H              -0.26955201634605985              0.31886415996539813              -2.347694616893243
H              4.558242685167077              2.0886026934402615              1.211917222031871
H              4.29788112754782              2.4330166214719324              0.5662154782898634
H              3.7986691026079398              4.67766433208516              2.8806625401302983
H              3.9409249007102645              4.3083880728986275              3.44396335091636
H              2.759085828734817              1.6237183601879912              3.264658917179485
H              3.412723827606214              1.8412482647320498              3.423718856899125
H              2.8178658186176526              4.401278712886071              -0.10917629702555337
H              2.459201797401704              4.631560710630753              0.5247939114647899
H              2.2693154988067192              2.011603721827757              0.14800085172470986
H              1.950800065226513              1.6693203038035331              0.7153962096201222
H              -0.2643570512329524              -0.25979576458658415              -2.083751959833696
H              -0.013337578552885185              0.32496390652477536              -2.5889924034484793
H              4.938528148812742              2.333302461864221              1.153340034911085
H              4.335109969012239              2.4955703681073875              0.8643745046329931
H              4.1886106020758795              4.965078632265495              2.7566310004009544
H              3.9548220059301324              4.302689170594754              2.9538747805906413
H              2.999598023252386              1.180538196004615              3.4027660923876017
H              3.058111429851166              1.909871753551992              3.104754685827279
H              3.0268895164327194              4.478934668483292              0.15832043304542026
H              2.5043242451297587              4.758958619748276              0.6036865614987308
H              2.211648317755804              1.9556263387736414              0.3597266119916142
H              1.9213898859222667              1.4049533662901816              0.8523104861044952
H              -0.3524027518538766              0.05260524670053148              -2.0584720705752937
H              0.12911964598925207              0.3552759863682006              -2.4150592919727925
H              5.0105539609212775              2.2050552533563623              0.6849896116597427
H              4.604612815635513              2.71551650931623              0.4666864929101162
H              4.272052652639293              4.692400847917778              2.7132479091562547
H              4.037129313751498              4.365810238670714              3.3309028729098804
H              3.0304287927777676              1.483556771131802              3.1171977518178586
H              3.3908945851502637              2.0325969436492093              3.0609923251676845
H              2.9496601646208473              4.603979092933261              0.050375941343108736
H              2.544463920970827              4.39438122789683              0.6468936867875144
H              2.3886449601693034              1.7859552471562181              0.416726909476014
H              1.9152700858031517              1.951709486550232              0.9425887027248278
H              -0.4274993283864976              -0.09456312800639496              -1.8569454159324241
H              0.17705459530119927              0.14238486870487493              -2.339744294650335
H              4.723098166555822              2.1598260509499996              0.9374944401342818
H              4.789129001001738              2.576713599955149              0.35131867157907415
H              4.361582759275139              4.26964678486403              2.8883428246147775
H              4.034214980555423              4.14377810617328              3.5716956881011375
H              3.146860574750274              1.2931444505653742              3.2767892353729913
H              3.0665329568747577              2.0915605515920688              3.140593151599203
H              2.905924197036387              4.665105848059735              -0.0013706054980160037
H              2.631469883620281              4.218059494019123              0.5262399462489412
H              2.3464741606080786              1.6359370324344176              0.5025462045897758
H              2.0178522956693437              1.895925060555607              1.133130316813955
H              -0.3404244122232606              -0.03750768803507925              -1.5684792079347596
H              0.009186631899926882              0.1574260901813149              -2.17679832035511
H              4.777630011851284              2.01577575557638              1.080572292634646
H              4.660976761934467              2.562643853816983              0.5666874393230451
H              4.504225497899221              4.279363127953435              3.036000280286344
H              3.9794013884441704              4.066966331779916              3.4476221687512143
H              2.8841985528963736              1.3782368369969764              3.374818417868019
H              3.121376205163858              2.0752273819280314              3.3020841486455477
H              2.8040508358700045              4.514030803870557              -0.004481527203559599
H              2.738292051654178              4.144072898854              0.6141661397231337
