72

H              1.6892544674905805              2.0698567578103875              0.35227124975701074
H              1.7622504442267277              1.3730944290665508              0.5289002455607904
H              -0.8538915914806492              -0.1713606123660905              -2.173699989255582
H              -0.11535073990220256              0.03910580095221759              -2.270930643091365
H              4.6064754286658              1.9267279856737476              0.6900739426728464
H              4.553847246510784              2.636295430088453              0.26876910521558817
H              3.7677494842859525              4.399706610746418              2.5781441273735886
H              4.188780901601813              4.6926278067851435              3.2048914564086597
H              2.562422834413893              1.3922170304798778              3.1548358617342527
H              2.8630227494508738              2.0130492438275125              3.205171807191367
H              2.798764583010926              4.559196839865111              0.2939688149495961
H              2.2421141814301957              4.1368049165840795              0.7084403806272188
H              1.9968954938105825              1.6820163317541472              0.17113249026447078
H              1.5784667062567743              1.456651322549685              0.7509986425424707
H              -1.1316338773158              -0.04002883781970107              -2.1122435305245815
H              -0.48442166947039783              -0.26531938850512354              -2.335806425951394
H              4.428368417387883              1.8778466618848608              0.49874323075418586
H              4.691073847582726              2.4877231093621384              0.8051926447041353
H              3.725417473955631              4.061719292140346              3.00334287292518
H              4.091428418272552              4.724084876121795              3.1810668600163243
H              2.475795292262607              1.5080049867721779              2.9070224018198014
H              2.800443273688396              2.0559109971290637              3.264614639596118
H              2.580426895857523              4.485028148135682              0.27201823795446595
H              2.1598837512042475              4.018925575358786              0.662756973560928
H              1.632991577731651              2.008260497228962              0.2527848815384217
H              2.0324024906162186              1.4969804008502439              0.5736884627624005
H              -1.0127378834638234              -0.07784032949116453              -1.931979712934726
H              -0.5656173685073705              -0.013790741603388595              -2.393750289687079
H              4.707148491194333              1.7959836121438062              0.7289192070305653
H              4.542445478275485              2.494841669688504              0.3560778108380749
H              3.9880791562999915              4.314835371604172              2.5125904228689704
H              3.99669031998634              4.287510184210823              3.263115260883477
H              2.409570845725726              1.070010761084239              3.318135418635653
H              2.5955648125781963              1.8239491448662202              3.3682132003362506
H              2.452643806319981              4.364548388135551              0.23988883363555816
H              2.178163011466724              4.205113095997472              0.8926714648500731
H              1.7496105138535616              1.8902162599013321              0.29355229198290295
H              1.5611896871982853              1.4753854698567361              0.8208599566207506
H              -1.0976060257285145              0.19365247492214202              -1.7837223515430438
H              -0.46705776801150145              0.2198716239609185              -2.1747934567595952
H              4.341806170618439              1.7623626695658943              0.6034729348129362
H              4.308551849007898              2.5393762308199235              0.29327549402427755
H              3.9003182852306812              4.364983317392474              2.5352264419365644
H              4.016004468048328              4.2610632207081505              3.2660489130761787
H              2.412614938623197              1.64254608718388              3.3006305043200728
H              3.107113123234044              1.2797790824576976              3.4604802078832644
H              2.326051107364776              4.364082555472339              0.19037505180501726
H              2.4004581472318294              4.4996784924804825              0.9358871798603815
H              1.7683185994615633              1.8170481276029677              0.271543185659887
H              1.271525341590362              1.824829519767161              0.7462541766335575
H              -1.075751563256388              -0.07791208716599121              -2.135506522866163
H              -0.4015360468004219              0.20868025456566358              -2.235779205003797
H              4.517815256994038              1.9281858763608897              0.950567806166877
H              4.425480077552908              2.4969896081116043              0.43778909814439915
H              3.5577554937770866              4.294839727643952              2.690728197157161
H              3.960739100936276              4.531293537905627              3.225072633531952
H              2.36338633272888              1.4720956630077149              2.990246964915464
H              3.051237295903435              1.7392543987563054              3.292616032586322
H              2.7903304233040016              4.257562920696414              0.10103609910851681
H              2.414022780493436              4.583610313844316              0.6696825278524482
H              1.8935452829861716              1.9353581833894828              0.28465785511026426
H              1.4672063788491434              1.3072810310968663              0.4833502405287222
H              -0.8992317405011068              -0.13526478433744862              -2.3615830120249286
H              -0.15120668414200955              0.21370902366628133              -2.4310104554918315
H              4.492238551946791              2.043070847569472              1.0326450453313962
H              4.442564430064924              2.5391395061557636              0.5290136982620264
H              3.670104774367579              4.317797854458213              2.6668772812453287
H              3.8321597849462785              4.706224164746713              3.307252356300534
H              2.683290758525876              1.431507283632312              2.8278530938332476
H              2.675156455000972              1.9610493799033804              3.3068791780544484
H              2.8724278232062312              4.22173400255738              0.15675183835660556
H              2.3433193619779957              4.121502635102654              0.628473104586506
