72

H              2.162137295853439              1.8707147013247296              0.23691598568037675
H              1.688360804102234              1.9888996626999762              0.8721056652977128
H              -0.5731461580387559              0.12575154809333103              -1.6969974939179218
H              -0.2480725991467843              0.2712911574558624              -2.299575436583731
H              4.444446014395927              1.9573160284531494              0.9892761175792673
H              4.406409572856563              2.4921672730349442              0.3995602275929992
H              4.252314572988894              4.566149328860555              2.8208125971631426
H              4.041326842868386              3.998217735679115              3.3035998195297447
H              2.778225253391404              1.0840026996773489              3.4312852478978284
H              3.2990348102362614              1.6444979673571392              3.620777486229844
H              2.424489569323956              4.611019649061721              0.04138478200144294
H              2.6323186310999125              4.581418780010824              0.7467839911230926
H              2.071391680549203              2.0683297798636167              0.2886705813868936
H              1.7238208003741755              1.8301466807263305              0.9291918348281026
H              -0.5314947550281058              -0.03483966646434801              -1.9126325244052962
H              -0.10690129385208642              0.47654495280249964              -2.1852109868613026
H              4.8796378656168775              2.2079469569329797              0.8544128620066161
H              4.21961520463419              2.485035262864446              0.6207639792222751
H              4.066974860714851              4.686293167439361              2.72965947311179
H              3.9255591841378656              4.1875635054534275              3.268668479007916
H              2.946457303250161              1.2760255056995484              3.24618950158117
H              3.161983921533207              1.971437228326189              3.3266484367119395
H              2.9928088082140474              4.321117224445137              -0.02914604757307633
H              2.6494390968317347              4.6251793897499045              0.5359907031556908
H              2.189472139466848              2.1275048599365176              0.3801534511255926
H              1.5953670211082502              1.6258978452852444              0.4910898589349858
H              -0.6508572404748044              -0.0728066182713949              -2.357552336415854
H              -0.010388885655143792              0.27579323173351883              -2.3213546124000883
H              4.754260838237277              2.2728280086097894              1.0845463695460016
H              4.5340389627615885              2.4866996948926925              0.35260262473506826
H              3.844740121018112              4.565793228984664              2.7479624377474248
H              3.983197090955196              4.51371279775558              3.484298249399351
H              2.876191761969305              1.4475385494312132              2.982005258030905
H              3.283466074547695              1.9933217195434048              3.338588986387593
H              3.0898080361009663              4.505603292434374              -0.020144636714938272
H              2.5716209038985967              4.3629895765365125              0.4688988917945407
H              2.353807165553637              1.8793638853962737              0.29711129517206775
H              1.9282804654500383              1.5354185521531338              0.7224838059176532
H              -0.4336318150904111              -0.2822568511258654              -2.0307739993330385
H              0.10010296148292588              0.15240780668078932              -2.319206989488339
H              4.460898914296712              2.066378496401207              1.037861913649651
H              4.518419944465611              2.6810904255383794              0.4889970287268485
H              4.148035351984906              4.471993914845319              2.762117560109961
H              4.018559068852453              4.490244983729616              3.515054384231209
H              2.8140025075216926              1.4324598809352436              3.4406791624956528
H              3.0002907723111982              2.1050970571408105              3.0636529451572425
H              2.761332511648456              4.754482350838855              0.09541948275559167
H              2.6843497158308476              4.124953592664445              0.5080691815923034
H              2.216929977822037              1.7646761251178749              0.2705406471392496
H              1.9421586618385644              1.715104849739245              0.9967971297767488
H              -0.7453133569905271              -0.11029806224485593              -1.90734647385068
H              -0.21977050789903713              -0.06859552008144816              -2.402419463879005
H              4.970856940907062              1.944362653086593              0.8627180975459773
H              4.782284320694553              2.6559652796140725              0.6017812558767726
H              4.200497854717672              4.516041734562608              2.7278007758343916
H              4.1356901454465005              4.5408806856188395              3.437786023303494
H              2.699890674672232              1.4959213596495113              3.228115766194971
H              3.1081767111574505              2.044179344776295              3.165971246883834
H              2.9066127104758293              4.591183928419392              0.14177899042891337
H              2.33722230809842              4.408193489853193              0.5736882067464474
H              2.1092728996638495              2.132528314002014              0.1052666738528542
H              2.2202173863974317              1.801988986588878              0.7851956471614295
H              -0.8692540436009332              -0.05229875812224001              -1.8626010231287018
H              -0.34301915917950443              0.17656361441793497              -2.4242083511562362
H              4.765128678926416              2.0117348243375903              0.6810539304737138
H              4.519429901730068              2.464131140558489              0.1868851878025862
H              4.0483835547729665              4.50729405198857              2.755653587960652
H              4.080790793494414              4.165726600622039              3.4423300356163353
H              2.495011167680242              1.4480871653449836              3.484470467997162
H              3.243706677029698              1.6435235209606092              3.359439776543488
H              2.671389921396091              4.427072811001138              0.0048469754464656135
H              2.2844663293837653              4.278704765811241              0.5928076724882347
