72

H              0.7770174056579501              0.9972544758656651              -0.4851385524953377
H              1.30174375418834              0.7715802997906985              -0.9442996209370662
H              -1.0326561763155322              -2.3989150022215875              -2.4173364307357708
H              -1.7377060755032603              -2.5835398283596707              -2.2788554552072537
H              3.8791364748772654              1.0740548039381699              1.3993930635248577
H              4.256265808768646              1.4524009790932564              0.8775610358817585
H              3.616763672208212              3.844641366885963              3.0900110292715732
H              4.1534403103819075              4.257011643476174              2.913987657184627
H              1.8868907483626325              2.2277972762526645              2.8691450961719984
H              1.5308927846441462              2.436076264496871              2.1241935277921655
H              2.7891184576889643              3.736406455668062              -0.17126763910855902
H              2.2354581023605213              3.80593304092649              0.3249907713323225
H              1.0637297844549631              0.6732440639802659              -0.6032412156257914
H              1.6130952752109484              1.1518964557379734              -0.6286393429098918
H              -0.8755418482571709              -2.513442537133013              -2.1969579392259115
H              -1.604130216656221              -2.5156827754985676              -1.9380467549235076
H              3.731708621070002              1.0375184335028347              1.4183382068876382
H              4.327546549618961              1.3840750438939968              0.9814932483755368
H              3.810647655623989              3.606377557507657              3.1223649709962027
H              4.430973769459959              3.9972695616788476              2.9614225093069755
H              1.8604434245855046              2.0966261197738336              2.401334525944939
H              1.13616387525822              2.450598598081666              2.424900299876793
H              2.6762153861434204              4.26149811852136              0.12840404495334903
H              2.208405004758554              3.8572251214904507              0.5998386746865966
H              1.1123239955231277              1.0955616537013797              -0.6538134301836632
H              1.5422607980438852              0.95212187223664              -0.05458144302739066
H              -1.0636230293109794              -2.3113167171630837              -1.8244122080961747
H              -1.754509573921504              -2.675488709350965              -1.8346720587979053
H              3.785970750870688              0.8457414295931144              1.4497157905946763
H              4.297769011446713              1.3534225716889872              1.352690731253729
H              4.013117456744587              3.60139682576301              3.2092968324527607
H              4.5131497260581845              4.070229583302766              3.011924549775693
H              1.23140226145692              1.994397936551739              2.9147083475800764
H              1.3749273501571924              2.233837924790596              2.2207346591004096
H              2.6007711051092097              4.025095030930896              0.40868210096785973
H              2.0225900155526015              3.64326279235719              0.12227748237233362
H              1.2109574877577163              0.7079095489531759              -0.6855429425428017
H              1.5513267205604522              0.9879379563139392              -0.10312990932698951
H              -1.3514406109853527              -2.4602783074948578              -2.1051753586410777
H              -2.0743838450398084              -2.5185991535149084              -1.9069597373955447
H              3.831018614970825              0.9968912930792992              1.3180885733243817
H              4.5097981970226115              1.37943870876766              1.1166562511038198
H              3.66664398268692              3.922363819499556              3.077338084413568
H              4.355772631549555              4.1296119715792745              2.963990754269119
H              1.598448429352193              1.904421354630535              2.617670194380885
H              1.4206572921235332              2.36927341133564              2.1500793453369544
H              2.667702500578409              4.1105030200549555              0.18904570190763395
H              2.0512974806972153              3.8189867778857574              -0.06071425040372102
H              1.2426147698142473              0.6805924473617331              -0.7549711736635807
H              1.4310349579060457              0.9663203557586755              -0.15740911031693564
H              -1.268962721734749              -2.3013087507307537              -2.266888504592892
H              -1.971978697018573              -2.601504523932032              -2.1823475189973354
H              3.766027764751129              1.065350815487247              1.2859365635688877
H              4.479365422431176              1.1387066997835964              1.1232345471346363
H              3.6436399730406905              3.716377650281064              2.9113329669066084
H              3.936139837598125              4.191296341537935              3.3478410711161035
H              1.5864021735947016              2.0813896570146735              2.8411734729739977
H              1.2792562387301034              2.4123161515220977              2.2178207757473314
H              2.594052449173516              3.7114672473358317              -0.35235658362497607
H              1.9978049360632617              3.828345698007981              0.14115821972189557
H              0.8934919342881665              0.7709529357563544              -0.48210974882348684
H              1.5786700804085418              0.5917872771813733              -0.4301455209044724
H              -0.9848092345385425              -2.3617469388385897              -2.2779739710555473
H              -1.6767447139533616              -2.658089388328383              -2.232694118671051
H              4.097140422063174              0.9153929897005033              1.518286032435634
H              4.493104716983358              1.4946427519335763              1.1902074465258194
H              3.61789115426798              3.8193421281132816              2.9298632958017157
H              4.078162506673987              4.36352874317557              2.9723133975121363
H              1.7152261284862085              2.313863885064193              2.860752066147615
H              1.3765002424484367              2.2823839047604157              2.276770721153846
H              2.7048507422834356              3.6697640361685533              -0.19416689431673956
H              2.081335693894826              3.855824216049133              0.15152782129028805
