72

H              0.830328728415256              0.9856205369333161              -0.4212688779618549
H              1.5526533882282263              0.745665650044665              -0.587204347242143
H              -1.2290159348745189              -1.8969560117526456              -2.4141155427621777
H              -1.5035046530934335              -2.269105218500261              -1.8818387466397906
H              3.5197470359984995              1.236821336043337              1.1876707873228602
H              4.119575330698728              1.5376141910632597              1.069016406494549
H              3.900311123493963              4.195019681303872              2.3861360845234936
H              3.873957406457214              4.036879312352959              3.108721957815552
H              1.4659036928381144              2.162632426579086              2.8951560894731827
H              1.9832820821173105              2.146432901147878              2.408904509501527
H              2.516590550091481              3.99940018255422              0.2957103637100462
H              1.877771360644967              4.143237236366664              0.710566677261908
H              0.8607981629089306              0.7095704537769278              -0.7089632068337542
H              1.3094704914128097              1.089127420419155              -0.2695516395877338
H              -1.5136349924101913              -1.808188250128038              -2.241971905570296
H              -1.6989762356045999              -2.3331439734316066              -1.8261015679447952
H              3.7379098389930365              1.0667472612237976              1.040214944515964
H              3.984516092971925              1.7212084127265292              1.1791803203996287
H              3.690570303800808              4.1472903301095085              2.464324804270695
H              4.152189370253927              4.2619408916721016              3.007644136864569
H              1.5478740411405612              2.1195079596497393              3.064802798719681
H              1.592284492463777              1.9184322742982645              2.3339932556130973
H              2.507981959624757              4.233415557991033              0.6623476373478077
H              1.8370461567026357              4.065025578621964              0.5231304232601512
H              0.8409705343022158              0.9675312534463983              -0.3220730035721689
H              1.5702163619347786              0.736443261341049              -0.3778221156866844
H              -1.646177322982865              -1.8387192435306248              -2.3648397909321335
H              -1.923290592062579              -2.1132768553885044              -1.7558899247108593
H              3.5160752108598627              1.154887260497054              1.1185196786013947
H              4.064129341061473              1.5488078281343713              0.9219332567469942
H              3.8827386171090708              4.285711727047964              2.487561682027253
H              4.062899958222881              3.9445230782349934              3.0760294390835328
H              1.5985967045686493              1.8875519214520387              2.70120545686024
H              1.9131586659496307              2.341804045219214              2.0920323377533365
H              2.434367863162756              4.35044293511162              0.4804473513918029
H              1.7660882461799379              4.259835966463875              0.8032451295182075
H              0.6996418945818937              1.1752279197949163              -0.14608446813688433
H              1.3980255356104307              1.0433715265580439              -0.3850326574828771
H              -1.330961852438405              -1.7484711276287794              -2.097776773949699
H              -1.8664425866590098              -1.8849340791511449              -1.6084945481200659
H              3.6569810814566033              1.0365448145860605              0.9304058133328516
H              3.940961858142412              1.7175929152886504              1.2918924940784025
H              4.05030344345097              4.019635965456669              2.4735288423085477
H              3.9826733105679963              4.001825041638391              3.1923658946430624
H              1.2708826365752748              2.0297938122682497              2.8320481137292064
H              1.7400001983687983              2.127822009932667              2.2834748375212817
H              2.362179102985633              4.209751432794962              0.2407136267253606
H              1.7325558743318628              3.9117312475862542              0.585295529544868
H              0.8348846380349751              0.9189435170947134              -0.5015173512640817
H              1.5020621767786269              0.9661460656330221              -0.20043457774099455
H              -1.3324374436970599              -1.9055436951671092              -2.3448596236601613
H              -1.9106249114270502              -1.8899601806745423              -1.7782202737323771
H              3.9778392876592727              1.0979454914203008              1.0960336490622895
H              4.347697921230586              1.702506391521552              1.082251449919447
H              3.851675323713744              4.221615083448812              2.4225103539918886
H              3.9234919933209906              4.226509649791182              3.0988721842227163
H              1.3344858656870178              2.076100016802064              2.795282376696481
H              1.9958851943430729              2.0435169731162954              2.403575667277384
H              2.644661128843482              3.9752754726039257              0.16929161274094365
H              1.933969290721518              3.969914857429438              0.15760792070387564
H              0.8216560343320654              0.7098858600493727              -0.31881330314299067
H              1.191043169942624              1.1579408421564457              -0.733366906951505
H              -1.3410568182087312              -2.0497266627490363              -2.6270620096637693
H              -1.6858632848965267              -1.8170169586396598              -1.874949770291537
H              3.7217125049959434              1.0136877268066404              0.8499227803750561
H              4.252182917684631              1.6652338025664901              0.8243033101436036
H              3.6091762495889235              4.17049533931456              2.457832393204672
H              3.6337027748630213              4.092034243819176              3.1728360593954914
H              1.6450056333128376              2.0472183234455352              3.008340095235226
H              1.6508787000627667              2.3016608552813715              2.2899751455258492
H              2.4728230263870534              3.9799574741393196              -0.2077395377931029
H              2.061965462797181              4.023706562721294              0.4229925517837138
