72

H              1.5481403827387832              1.6545551225081312              0.1692548349517721
H              1.3225860602411974              1.2716369673928725              0.7641193793158723
H              -1.5695342071156193              -0.04587660459244367              -2.1645073775780217
H              -0.8534776828903418              -0.07572334305547053              -2.049510522360182
H              4.463785178878437              1.6956768074241741              0.5875968947566944
H              4.5090575374198645              2.3422210364786675              0.4558038297963675
H              3.425233903454712              4.0565547862336775              2.757755376851742
H              3.9024501972614987              4.512175096121817              2.8824847476412345
H              2.1777654531463426              1.7484088210876663              2.716936291949382
H              2.5036645319610065              1.6636768293874247              3.414592703359283
H              2.387740038868366              4.027605055653352              0.36893694590414544
H              2.0021818501343964              4.318441296447871              0.8307755932438627
H              1.390652973279065              2.009231721084215              0.3114174887574828
H              1.2874258690221703              1.3155618391688173              0.3082325365589231
H              -1.3822372390371076              -0.25759956090251407              -2.3590863085565346
H              -0.6731696223200199              0.021335336213754007              -2.256347663364911
H              4.112725130988169              1.928234356537674              0.9553724419208827
H              4.466626840469829              2.233231289279983              0.3607232367188935
H              3.3574905544222586              4.272614128385731              2.6211286437801626
H              3.9383477050695026              4.500133169319978              3.0092522645181896
H              2.0926391639212207              1.7798831246901303              2.709682226173259
H              2.6669896856263255              1.594592957144035              3.2129031811462685
H              2.4304108209380133              4.275494418069471              0.24548148758585261
H              2.0247609355932816              4.354527913858092              0.8467014878824985
H              1.7293918787229035              1.4964472188672              0.11279954045945931
H              1.162427626320522              1.326426527258036              0.6167290338777737
H              -1.196861563046414              -0.2011303842314312              -2.2455708684734383
H              -0.350948617796025              -0.0029435008726280683              -2.401289478974894
H              4.257893803630648              1.8727920214620009              0.8379156252016952
H              4.340663696512115              2.558156714405636              0.8430053556748591
H              3.512327193685518              4.186197420420147              2.763693250833376
H              3.859434274084653              4.829103610228976              2.818057288371567
H              2.118981365743525              1.8857405162214984              2.637111389073681
H              2.711500148200454              1.7626252012466768              3.0069001725551945
H              2.5318132986613056              4.0648023512532605              0.26332504538936097
H              2.147870408149643              4.156470593943974              0.9205025532077826
H              1.4139049040486908              1.9164258886566872              0.1121659322727505
H              1.4148527227752286              1.246405266268914              0.4743860330783401
H              -1.1889246787517345              -0.17728123374221583              -2.3825232545040818
H              -0.44921018326385087              -0.1944525897256311              -2.489795903885616
H              4.860842572989976              1.8890369997369123              0.579851109013965
H              4.735353091798934              2.536518851748759              0.44907491930730653
H              3.5346653220094786              4.2445758305635986              2.8281920924202764
H              4.054387209386688              4.797831004011373              2.7177677210557687
H              2.533886911779653              1.565035945811401              2.575365778702018
H              2.2866431407282994              2.199631688801531              2.9179823089836834
H              2.641028705549583              4.065585134592719              0.43006597042048234
H              2.0035004582686233              4.270571818414166              0.6971262859546478
H              1.6307733189759717              1.8314539524974394              0.322086339920482
H              1.5782174144902181              1.077054681779858              0.29847244535656314
H              -1.1494341494310687              -0.012660050223890343              -2.144649212835196
H              -0.47699478753205177              -0.3020631776997759              -2.274768301579331
H              4.1465722435836305              1.8405457776582501              0.43308168305630507
H              4.549806103516428              2.378604764461212              0.5669446284726559
H              3.7720739642578587              3.841441671503382              2.9469108150053995
H              4.034145096053227              4.563517920555831              3.0961504869760867
H              2.296756280884863              1.6256325271846148              2.674608365184639
H              2.480164726042903              2.0196611406980187              3.1672073383722923
H              2.259771982461494              4.279197597219409              0.33328357070308456
H              1.9496950227004424              3.8647906053470558              0.8442456210224095
H              1.4752563796968534              1.5774698608086062              0.24177401424773726
H              1.573422064812663              1.331782284929343              0.871693223808994
H              -1.2537994540159472              -0.13407536904571618              -1.8495176858092037
H              -0.5534477656025103              -0.24869058347046832              -2.0260401843280773
H              4.498637437157177              1.6597257337338085              0.6148546701279987
H              4.635002352286372              2.4123373745302175              0.6356062988493084
H              3.8401204052642073              3.963225937154015              2.549316843455582
H              4.159568227953019              4.418597538497719              3.032976589193279
H              2.0011006923303825              1.2880651481702061              3.1382327475422347
H              2.5926697650405828              1.8482087510774228              3.1880591190897873
H              2.2818690690192134              4.2875667701342035              0.4042056651072504
H              2.050529374861357              4.281501420226719              1.1139687149844593
