72

H              1.341726903494986              0.6105452925466891              -0.5640176433047377
H              1.3969412889406048              0.8214675500956455              0.116849227559733
H              -1.1555867223333143              -2.6487790993201705              -2.079611324171547
H              -1.91193000808387              -2.9625272412377512              -2.1324362830932726
H              4.028763807452943              1.147812728305192              1.5284082983861513
H              4.752068958972752              1.2693848058965909              1.4581372545720899
H              3.762230416736988              3.5469310829240706              3.282694768337795
H              4.2017314365989025              4.069887523801069              3.0268284099809386
H              1.3365314587747792              1.8326828641513169              2.264117645054712
H              0.9816882184782006              2.5097046921106707              2.2470834179738817
H              2.687768648014163              4.002013175908729              -0.027357297353610942
H              2.1639626793962634              3.5991283811017687              0.333923589286895
H              1.1017425022903242              0.754013555611579              -0.6309864212835852
H              1.3663829876953404              0.778253523869859              0.07156982279198383
H              -1.3288322571455835              -2.3314151576827915              -2.2044380952831553
H              -1.6676115276690477              -2.904261780977664              -2.2989562444960567
H              3.7952006343275575              1.2227433394656395              1.4416693748699103
H              4.395789704832685              1.2752013943154576              1.1290132463513476
H              3.7018007494094647              3.6377116280014055              3.1969069331226425
H              4.054135565660098              4.241914707300017              2.970524436376801
H              1.6392167330192948              2.1635693366711846              2.546963923732367
H              1.0784238436719193              2.467042866276003              2.4481709790523856
H              2.727273985566376              3.5297619493162933              -0.09210487614179878
H              1.9490979142853495              3.584152856332021              0.0621431475117248
H              0.8452221704487038              0.37193924298387526              -0.4254531500816166
H              1.2331929800957344              0.9624571749726135              -0.05249822208155374
H              -1.1703442671565039              -2.4979805728130047              -2.2992079370762903
H              -1.7474737141247099              -2.8287450405811816              -2.458779862647767
H              4.024962162741795              1.3664556785832418              1.596303675263772
H              4.54526659968262              1.5269835945792123              1.0766184801585743
H              3.6416946618409622              3.9079015068917093              3.2177899431455277
H              4.262555293933073              4.134786872553861              2.8291797077366128
H              1.810527579902152              2.259612711428646              2.233675558906942
H              1.138477288259058              2.402372572154736              2.621041558927123
H              2.955013135427798              3.5935256283884183              -0.07163894298972119
H              2.257093017859961              3.757157774868307              0.1961061112551465
H              0.772713605118002              0.5774773024742277              -0.6297557397434806
H              0.9411404455930845              1.1353494582796202              -0.10265708650484487
H              -0.8125905075024943              -2.514167580720433              -2.362361919103995
H              -1.559386222065987              -2.806792053893838              -2.4090460027135676
H              4.203948315725992              1.1466154305362697              1.5809838392849214
H              4.507202568492525              1.5555826326443245              1.0513030544094821
H              3.820806498078411              3.505446244680959              3.3663335644252945
H              3.940586073491996              4.097418854424893              2.9282112366254816
H              1.5358785470176028              2.341368412489931              2.696361272250765
H              1.1247357395599642              2.51469735697162              2.1209225778304472
H              2.735709261355744              3.817158649415874              -0.1883365019992346
H              2.4838991557658634              3.4983209984275985              0.41672468150803055
H              1.1147318042199965              0.6468767316891596              -0.49330902688438444
H              1.2483275693816167              1.2690540389791767              -0.1244838645225497
H              -0.6735744376660666              -2.585386424533449              -2.012939961915083
H              -1.3626156850794973              -2.604025967648633              -2.1120827036047864
H              3.859045332553213              1.400859492973756              1.6149120769434484
H              4.181047412663033              1.3410200396543694              0.9163194573527351
H              4.1485033186982525              3.68826127396454              3.3288342415666983
H              4.458197421815339              3.783086214433689              2.7250639636133305
H              1.8955018655448843              2.3640888616288502              2.4930691667223366
H              1.22216803194139              2.3694456542967712              2.1426194515242005
H              2.9757120461251185              3.8675643654115723              0.3544095995105847
H              2.283397876305275              3.684162670507314              0.46851257014663394
H              1.0612533932436006              0.8204085077413067              -0.5431287884662197
H              1.1141812889885359              1.2623317808651562              0.11010279292526665
H              -1.077257387623094              -2.6375282639617663              -1.687355222742034
H              -1.7003113275519233              -2.633944173865671              -2.0889404448147237
H              3.6977589754347395              1.1944304833566781              1.4654772755242444
H              4.353871047260764              1.4443536765785483              1.2654082280247636
H              4.108562981307456              3.6485654108376266              3.514829670953958
H              4.537601972092409              3.7492413798086988              2.8594832893384425
H              1.41020664027805              1.8912559040041672              2.614426190161728
H              0.7867993080034329              2.2925841117832846              2.3205245749769485
H              2.952707557213638              3.7982281289826436              0.22982847569324263
H              2.257774396677727              3.5982014681627574              0.3010927699855977
