72

H              1.7225387466507034              2.1189674716656755              0.2615208285628972
H              1.5684763531240449              1.3775135103886422              0.5204195501050161
H              -1.0619764392980329              -0.28295619670505906              -2.193357388182468
H              -0.1840826378159701              -0.11689450543627018              -2.187857810940682
H              4.382037134477476              1.896714174717667              0.8863718971445179
H              4.60222014912337              2.4286718638194364              0.47504560248603883
H              3.6901380613725743              4.294505872538072              2.683701573995786
H              4.124195134550061              4.616789598613083              3.208369418732151
H              2.3642072789927178              1.4075249394067977              3.1957966281457937
H              2.8097642746094054              1.920948931400269              3.356809125369696
H              2.6160466349555804              4.526387286302996              0.3315817497827836
H              2.2418208621853157              4.040807774910424              0.7702225362654537
H              1.8790022148820669              1.807610328028961              0.11058844058929128
H              1.521758098158207              1.3861950762924573              0.6506275979326461
H              -1.242314138551602              -0.1588654614623573              -2.112693846192114
H              -0.5927576448066707              -0.17006416459175344              -2.3337102013273263
H              4.610334241606974              1.8474859596630826              0.5772641425915599
H              4.489683797834725              2.5146046968393794              0.8055288554531223
H              3.5517844292163              4.240904831883404              2.7371366844775635
H              4.059415781643952              4.755260079768278              2.9757226092703153
H              2.305125959571398              1.4300631710644087              3.052306502509161
H              2.7307790554812903              2.0272302471168584              3.347167861271031
H              2.624779584330114              4.284353270242314              0.35950333701759685
H              2.046785775015265              4.0957520512221866              0.7971771962996868
H              1.5191353223642798              2.071788301088122              0.22854761982068295
H              1.77125346894715              1.3580535104721176              0.36745570469779204
H              -1.2780804683361795              -0.03559284987490708              -2.127211446164706
H              -0.7030810110301399              -0.0685857339811819              -2.564543048325441
H              4.605203708630978              1.8704685367152512              0.66292636047307
H              4.519837230202372              2.452370637731985              0.33483060167671186
H              3.67882236657913              4.390766897014322              2.516890504801013
H              4.054972643373777              4.455509946297358              3.1106153244420494
H              2.3134869445477872              1.2661040392259362              3.024370212364948
H              2.757888914555899              1.7876931334317148              3.293150213354381
H              2.4627696561657517              4.405760012038001              0.31257218499873046
H              2.028591433937353              4.42867747209927              0.847587740212266
H              1.778287908686213              1.710523846746049              0.29737008380383534
H              1.6159458731561305              1.249912475404025              0.7641580968550511
H              -0.9717812538425086              0.14211221713257613              -1.8006859938032143
H              -0.3801278868483948              0.20033711441662205              -2.34423013219569
H              4.09639345105334              1.8282714591008582              0.6006667534924434
H              4.230704435886049              2.5577047353540894              0.5602553601626475
H              3.9408431473497596              4.194464979719444              2.5656469960314094
H              3.932682860862089              4.313765551771975              3.2670231582689353
H              2.2347441788561855              1.5899505445969135              3.0866231673176743
H              3.035035525178451              1.4188408931954637              3.213954312110231
H              2.2174284384590255              4.421464871795112              0.23673355487449085
H              2.440249484248127              4.320530073897012              0.920459935298897
H              1.6554670379659358              1.659975840126405              0.32530310448674127
H              1.342674939014859              1.6388004283990723              1.0259825885328486
H              -0.969856514694091              0.02479111557677739              -2.017435074429457
H              -0.2801592383058285              0.19156508386447535              -2.2120466444574265
H              4.777305165638811              1.9327557277637877              0.7663350714243079
H              4.603741998861047              2.512689658367203              0.4572227351843473
H              3.795644285124057              4.2284210845451256              2.5751397820270605
H              4.006891380545652              4.536688196867622              3.198146707928175
H              2.468229433266959              1.3099844724904208              2.8381885729492895
H              2.881805792973862              1.911382770147656              3.2049480405116704
H              2.7613703990831593              4.1741859543784114              0.2520094670889957
H              2.4510943498656084              4.58359604082793              0.725878812468219
H              1.765782248938277              1.991579444049551              0.2838267856226815
H              1.4851512399004014              1.3761888920497252              0.5645936564550984
H              -0.9756720156960453              -0.06453572976932503              -2.373635488525571
H              -0.3073362293449477              0.11124293736050313              -2.1655874523943366
H              4.454449263726384              1.9266298724916668              0.751227296301064
H              4.58385111068616              2.473015864725629              0.2712004126483949
H              3.577517036786866              4.098927473683574              2.9260280293589602
H              3.8769447793113305              4.651658840523416              3.2777656499860894
H              2.637109027165115              1.6010219464543507              2.733609422525151
H              2.6212687077849965              2.0058554233201153              3.3888543615076285
H              2.815508085392344              4.162934509434274              0.12628580368546544
H              2.247739188454623              3.976777989665743              0.5512225073399818
