72

H              2.197386238971426              1.2429942319078706              0.6844413642491332
H              1.774215880748561              1.6692363197915867              1.1148164680924135
H              -0.840011377492734              -0.9699839951761586              -1.7223145140092722
H              -1.1413701035894492              -1.2653450930037495              -2.364233775156872
H              4.668442152210763              2.3089081836521363              1.1496418908244623
H              5.131986578897053              2.724913854289696              0.7946782077010534
H              4.318728565783892              4.893319782331925              2.6088970166026257
H              4.672434712346782              4.521440335048423              3.1161839318029045
H              3.115533108510304              1.6590647255201576              3.774295022064846
H              3.2958800534905586              2.150749164653432              3.2798193231500585
H              2.909852309262637              4.482092365025576              0.8170232691042434
H              2.6864800418486565              4.029623183113655              0.26538234352914236
H              2.2652462142350536              1.4058128862204873              0.64234007616777
H              1.7047411994807606              1.7853066172821475              0.9873432384359017
H              -0.6216454141657891              -1.1588766198198144              -1.732578048710716
H              -1.0435484641892248              -1.312418289767527              -2.294978211291543
H              4.632649267221725              2.2008521258140603              1.2871809069044888
H              5.09597019470096              2.4103361314437297              0.7457908870639103
H              4.235681483551606              4.905757557920584              2.809875268584864
H              4.378810091865554              4.180708810355679              2.961641077222375
H              3.4545454243549742              1.6922734819797078              3.6777948288716864
H              3.05182361674926              1.652672710020025              3.0488962863408124
H              3.269877625949753              4.6543998219097675              0.6137285818046855
H              2.900562669417444              4.097061512226034              0.32725965719985733
H              1.9612428047555595              1.3415412348096205              0.6481024840278581
H              1.9489301664574024              2.1218884305736654              0.6487291256347137
H              -0.5361925080693686              -1.2425938870512232              -1.5743017767444707
H              -0.9220761371283996              -1.4168907142159326              -2.2549265574023374
H              4.9684172872547              2.2680648069581206              1.78621635039181
H              5.140459118819119              2.4209794536404705              1.097930270573377
H              4.410339082523509              4.758569581446192              2.737590597756623
H              4.480197929889669              4.041399594145995              2.8870237808988817
H              2.9965647738635104              2.0739080239337673              3.8292742150843213
H              3.126181562376958              1.9358808980824966              3.0403318702678925
H              3.3402263528940073              4.624235707496087              0.647056010051233
H              2.964496661678859              4.1133768824206225              0.25024428327443193
H              2.1794922742620613              1.1936829733480645              0.8864631928884739
H              2.040270382199369              1.8828100462255999              0.559344708210777
H              -0.8907464318812798              -1.2742395454595998              -1.6201001258930066
H              -1.1923184692794409              -1.6751330243335927              -2.206331821887768
H              4.9892753537247705              2.373801499937752              1.5275779047632219
H              5.0310371160103955              2.8621513136924874              1.0392298673824267
H              4.619685918271637              4.714971485326471              2.5487603337518703
H              4.5113967859335204              4.122513300469772              2.944594870457645
H              3.1417915425371943              1.791714912401752              3.706707085140695
H              2.8858869310524047              2.4490027922250364              3.3428988224057368
H              3.228263810420266              4.778607606630191              0.2877176440706459
H              2.5927772562383686              4.367668908758985              0.3136013283294323
H              2.446720167084635              1.1486657338465995              0.6875484608734513
H              1.7936803198007332              1.444222464264436              0.8656787020642055
H              -1.1196473570123808              -1.2921243107611635              -1.932105173997035
H              -1.2467811427315827              -1.7864453021936137              -2.3848672279355583
H              5.182218408328252              2.3217076392272746              1.438157860745585
H              5.276573396579265              2.7602901071665866              0.8681151508551027
H              4.429941903648839              4.859223506771651              2.859224154457005
H              4.242139987696527              4.161397444347825              2.780516535723429
H              2.762250487873837              1.6248241931514102              3.8608078187391093
H              2.7048500838546436              2.1237748400909946              3.199578693727362
H              2.9296448559260435              4.506387097736811              0.11361288757289761
H              2.5709960597639783              4.016800606017056              0.49077267646640427
H              2.4463597480904973              1.1758819203100541              1.0350038698736528
H              1.8627959514898644              1.4986407242352018              0.6993940132420429
H              -0.9063784405738279              -1.199591906848205              -1.9232952592259949
H              -0.9528016914949687              -1.6835946640245536              -2.414428672355344
H              5.125884283225779              2.397207495678575              1.4177186723058655
H              5.300137565886947              2.773324708949527              0.8121858771779809
H              4.5409552829048225              4.833198777193273              2.7695196457956848
H              4.397371896313392              4.183637940808165              3.1167025432925715
H              2.5678634433869063              1.727003617775403              3.772935451806762
H              2.975060364671065              2.4210374422963192              3.56041297220007
H              2.933204826932771              4.567002002025733              0.4456084134601142
H              2.633085072001267              3.9796756199058385              0.29213702320258034
