72

H              2.4125569727219704              1.5686973586838584              0.7889560652130138
H              1.7236290161355132              1.7220217974390695              0.5598848365024811
H              0.9621127436138167              -0.8065127158758696              -2.1122972027345277
H              0.8608568155023065              -0.07327659263506857              -2.028720702461719
H              5.34339395183604              2.5808447450191325              1.4043987639635303
H              4.971960054963067              2.020437870302666              1.120997692513624
H              3.9925547328762336              4.768663389508992              3.166852917565229
H              4.286170722799329              4.348250089130222              2.5990804696153287
H              3.1822684951601095              1.0428463123439207              3.693178712760515
H              3.268905830265564              1.698479506186857              3.3334932108634168
H              2.8505188550911584              3.960659164188349              0.7995906526883718
H              2.808686341786175              4.497986750630436              0.32033200506821435
H              2.2074616444402992              1.3927204834120754              1.0320204527676418
H              1.5358724543088877              1.6919485161096761              0.8622301288586792
H              0.7637884187354601              -0.6363988502821891              -1.6424342687185167
H              0.8381037283405356              -0.041633987191479066              -1.969309632079802
H              5.460376910971951              2.6395935716643577              1.4415951633382664
H              4.954474527913271              2.0339184131136143              1.294349725956497
H              4.264297561304057              4.644833404233735              3.219384185701437
H              4.5001385224981965              4.2375239400193925              2.7081496245011096
H              3.479287484850824              1.3235272417567976              3.6667030195899812
H              3.2707572537794203              1.7965408351784495              3.164209397107664
H              3.047784484448529              3.8968595935370165              0.45157678692810127
H              2.8789705494452336              4.547601392010536              0.6233115447418773
H              2.0384668792732312              1.3292972303879003              1.0573309197660705
H              1.9000448076549497              2.0709459682845197              0.8714208160138369
H              0.5015199371638521              -0.8071814644815605              -1.5847922747742447
H              0.509665140622463              -0.03077463876232825              -1.85175827046835
H              5.078914776457896              2.670248976908355              1.059829543608118
H              5.04541554412337              1.8934529973209195              1.1982790872145683
H              3.9503923496780664              4.565269432960277              3.2037653753192
H              4.550085984993              4.281902039985654              2.865517307068481
H              3.552895190137559              1.2682848860708795              3.5065449973057046
H              2.980460785584826              1.7020286603978565              3.320492996494521
H              3.2190893620691394              3.875047670009947              0.49952525805863723
H              2.9035304051970727              4.511207491849531              0.512408235601486
H              2.168350441410499              1.2497395635575588              1.0790741201233345
H              1.738605809464838              1.825634445994134              0.848262591602207
H              0.6491162028747056              -0.8025203261719669              -1.6036561613035327
H              0.2889011776842582              -0.17210126427142441              -1.8642990672151956
H              5.164950462421163              2.4321068709311713              1.4715623539321714
H              5.194922746637137              1.7048888169034377              1.1939968962890546
H              3.9512245316131747              4.752536780670366              3.3753544749345576
H              4.299930576580857              4.4012456500714725              2.8372031983758044
H              3.078466728599493              1.2301520675323625              3.2559473748132928
H              3.066950533324872              1.9130953074993984              3.4762152127621255
H              3.051469961889222              4.153044297666559              0.7620405744024922
H              2.772926943509171              4.60420944564187              0.22298817018856965
H              2.4875151102065067              1.4859330432035942              0.8595323736598772
H              1.7779939622128316              1.7392589611796683              1.0072277688848148
H              0.8038566140810404              -0.6878913608356239              -1.8481365416826085
H              0.14146695492029265              -0.2938772762720071              -1.8274884457068834
H              5.356999485577645              2.4454484189081667              1.0342647004816659
H              5.20476112542452              1.8902134846206662              1.5819885909216538
H              3.825130111850662              4.775432668932207              3.0531167343995267
H              4.451415221995122              4.7421626220788635              2.7350504541860676
H              3.4843540222365963              1.6872086353628721              2.9996615316608675
H              2.889591623067179              2.0471279166981904              3.3073852311519767
H              2.9383175800770855              4.206313524887009              0.665428604951147
H              2.7944832560731068              4.772344220249554              0.1783405100177701
H              2.3658528799151766              1.6446235735198498              0.835712581863581
H              1.7291906204651988              1.4971587153582924              0.480933867023464
H              0.5840610067917812              -0.7423758193191664              -2.2194036172746623
H              0.4035453914418931              -0.030417708277550807              -2.030909793517778
H              5.3657496067592              2.5553259169395846              1.2032180796221494
H              5.061485898515245              1.921576803682902              1.1125850977850333
H              3.6888990938163517              5.04016769911836              2.9772414135188394
H              4.228061481457637              4.572680374877064              2.8154045590815553
H              3.326580660494237              1.274954226364748              2.983580455804546
H              3.314732292156541              1.815732546785947              3.485620735519087
H              2.7469716026627              3.9642982447807538              0.5746819292286217
H              2.7000400953563455              4.67171343213037              0.3333377571828276
