72

H              2.3503324109015415              1.5465095173547931              0.5357167989425253
H              1.6664350209990666              1.7271315846877815              0.8390668717597403
H              -1.2402720333769246              -1.3225773969746184              -1.70748483446347
H              -1.4418919424551275              -1.5120898432787049              -2.308983922902623
H              5.2137261526096195              2.239260096064065              1.4966464984041676
H              5.151989579892147              2.487964734456337              0.7576839786157182
H              4.6682934391900925              4.693359495113693              2.8713064835660895
H              4.432116925691633              3.9840680665251718              2.818015032938514
H              3.078926118318027              1.6961950305718254              3.7945887620206786
H              2.655793000092085              2.1755245637075604              3.521278746848376
H              3.11763063528612              4.748362133384103              0.6788033712044315
H              2.981336062762574              4.221495298050629              0.1602311910949062
H              2.2314999367083543              1.1149345803273878              0.5473575460947315
H              1.719137920166419              1.559343794174068              0.7227420440182822
H              -1.2743365151743136              -0.9591530269915111              -1.7251225243991757
H              -1.2489062831669007              -1.5382066715587213              -2.296551569264058
H              5.278051980229428              2.4531475119713577              1.4538333342052456
H              5.109895977343019              2.5777976911103644              0.7094836706925064
H              4.526918954892026              4.872894281686181              2.7134532312941437
H              4.590329740770095              4.201397228965723              2.9215648155539036
H              2.9987640029025973              1.9492262515794685              3.928876506970852
H              2.978159571093264              2.626317626568812              3.547175949557009
H              3.013220650477489              4.43940159186186              0.7426218135811968
H              2.6178829398225147              4.381394393647672              0.13811811737916374
H              2.4433400727859884              1.0735629948369474              0.8335849897659439
H              1.7754378786170124              1.4990010990112888              0.6155899957563693
H              -1.2219673677909828              -1.071717116354521              -1.917121357030379
H              -1.174445547885478              -1.617398467620402              -2.5355290036431053
H              4.916716092906692              2.535261295878563              1.1744462248460572
H              5.235539937417119              2.4967118429471453              0.45687105283356383
H              4.170458031895164              5.001633797378055              2.849318916643095
H              4.420067340906527              4.3091221511133435              2.8571369814838663
H              3.418655184378435              1.6233671656952389              3.634735288551139
H              3.0522475114010987              2.1731173637021133              3.468569737154911
H              3.0831806630925556              4.60478962846024              0.6402846400021697
H              2.4442974516445815              4.364210362430311              0.282652393263465
H              2.4802925089497685              1.1909101774921214              0.7873576207833685
H              1.849759666875646              1.57155141700374              0.5790685049280084
H              -0.9508257116478545              -1.3136423457227184              -2.0448933454717158
H              -0.7728315687441293              -1.656231269578735              -2.6366161202645224
H              5.027834727681836              2.2528040951277846              1.3108249144802113
H              5.247684640182867              2.317234664589107              0.660485879388578
H              4.08287830271736              4.7748817219979465              3.1112491566681175
H              4.298416302571136              4.096534645163815              2.943164133342137
H              3.1349172599806163              1.757466961026183              3.7504045265258865
H              3.1742395365641545              1.7882571601670412              3.019699082474504
H              3.2378177571559923              4.343035270045572              0.6105059133295699
H              2.550543716305938              4.054321864061097              0.3954591069210927
H              2.273322324598269              1.4440750136701783              0.8606360437912112
H              2.0279641215348327              2.115314299458846              0.6664934455799797
H              -0.8727534124300473              -1.4337991759204933              -1.6955718791058898
H              -0.9215985445380164              -1.4790036817146055              -2.5229408072941264
H              4.750926161925428              2.2215036785396207              1.3215453247579123
H              5.181736785825572              2.602649697593758              0.8484572593859085
H              4.535429440278372              4.598814269530826              2.816555314197981
H              4.702582744688149              4.039396967642009              3.1625436606945416
H              3.2354663682684732              1.5357743832440243              3.5431639378866286
H              3.3008512112863317              2.229745238429323              3.3108285811134666
H              3.227865716556634              4.6336085077047136              0.7955440163790778
H              2.695746139106052              4.346345388945246              0.36490836191894827
H              2.0913311313837313              1.592297137191184              0.406505530543439
H              1.9463249123519104              1.7760847799706414              1.1405744190674139
H              -1.2217518697068896              -1.3674818752602838              -1.6082289418930078
H              -1.4386614859620195              -1.3822061466563313              -2.258436499393974
H              4.856627667422641              2.1590429649158636              1.2856556789574638
H              4.86959133812308              2.5787840645482416              0.62138013959528
H              4.618703966130842              4.668170268327541              2.6678082975252724
H              4.618796682128325              3.9847373582836827              3.1425439640779853
H              3.4023460866964075              1.6459148471673246              3.70871909089337
H              2.9533457277776716              1.9102445863935036              3.18937982183986
H              3.1074415049379263              4.649165057811804              0.7676116862322644
H              2.812270407042691              4.252361027226455              0.22875173934400603
