72

H              1.3687711767329447              0.8584479677712007              -0.4843147861221131
H              0.9420613809300159              1.0680918127859587              0.13399484809986498
H              -1.2361195571304073              -2.381607952100213              -1.9587592805576788
H              -1.7572810758014874              -2.7329439983326487              -2.273508027013392
H              3.9446401612731354              1.504026417077185              1.4963045526861614
H              4.432646690094542              1.471206267587343              0.9664961132134638
H              4.085124645068397              3.6850667068545544              3.3953155680231735
H              4.387194072911353              4.002202622676231              2.8456825187835473
H              1.5516067894081047              2.131777983833212              2.680476626782893
H              1.170251170008524              2.467193597425239              2.1386975339897045
H              2.980845051163216              3.866278382446483              0.15564842099683898
H              2.3007727694423967              3.5425113986415457              0.08902801391884102
H              1.2587943452155428              0.43971186423480596              -0.12023116124198392
H              0.9128722890651789              1.1313591895075477              -0.1444360193650375
H              -0.8799798620595354              -2.4616314073386727              -2.0711859617929655
H              -1.666809341590663              -2.738837094944171              -2.3166833324508516
H              4.018249664841748              1.409135992145872              1.5404088773680034
H              4.673043648497819              1.6475751557829454              1.1110143160696206
H              3.902613481193595              3.3656783035422437              3.3651287446028646
H              4.059334302550724              3.9137670931550046              2.9102169578435237
H              1.5014076795724312              2.166054594220895              2.289365002728974
H              0.6977727052701372              2.3611434617541383              2.3374368359360274
H              3.0123424802824297              3.6824393612817              -0.14626361127141602
H              2.5342945859793287              3.6172037786178324              0.3696948306211128
H              0.7738627718718724              0.8441661941526374              -0.45344927707661264
H              1.2276074234521823              0.836111184631682              0.09358603189078907
H              -0.8155057956200815              -2.521575390209536              -2.101719562922826
H              -1.3543763857291673              -2.934068846658312              -2.482644118461866
H              3.9311111191873964              1.4077120838087573              1.782950243179811
H              4.449941075236896              1.4214485280641072              1.2813165418446983
H              3.8458420508918527              3.4839152211802467              3.2535956912216726
H              4.071065960364601              3.9499339811604957              2.8369271755538965
H              1.6705573683060737              2.1751611439979563              2.4403955724649737
H              1.0185986533251346              2.405023534548373              2.2517588704169342
H              2.9265419375265305              3.108907802955071              0.008659767800677913
H              2.4550317686474683              3.5427512020271896              0.3640351277305139
H              0.4670564204124234              0.5900045581785334              -0.3039286209350944
H              1.0861207697701512              1.002835395937538              -0.22139376301091013
H              -0.9291720599346918              -2.7225292644564427              -2.236667522532447
H              -1.5851345786076625              -2.8593541469540575              -2.421178586457754
H              3.714246385963199              1.4783483426826587              1.578977769588621
H              4.257469563214395              1.4694196850137824              1.0722993219582166
H              3.7809538238678853              3.940755471887284              3.276397540304778
H              4.176019587477041              3.787593992308092              2.7113633429432036
H              1.8342223212776845              2.2270901173163553              2.1085509562719262
H              1.2054993410833637              2.3135044111806216              2.479963490111187
H              2.9143176084070626              3.57065034603994              -0.03592589789218777
H              2.4445432535242233              3.561818027274746              0.5959849209815548
H              0.9357280683585991              0.5689337402818376              -0.281577239067947
H              0.8084737407876278              1.2619560747076015              0.04986890838457884
H              -1.0448492996356635              -2.685479265195623              -2.184724424197955
H              -1.6766618985764519              -3.0646519309315874              -2.3837864183037154
H              3.833275334524757              1.3081727682588595              1.4713413026726108
H              4.47773018422803              1.1638041040298412              1.2724570614061668
H              3.8670988691727968              3.615722409045249              3.484536891457896
H              4.3024831463974085              3.8926279228406666              2.9307193986546043
H              1.5011029373698683              2.0310704308439482              2.260733190166197
H              0.9028016940450454              2.4787227779528265              2.501234743675429
H              2.7980679951204297              3.902881903320965              0.14527248363369513
H              2.1876986239464737              3.697075756101459              0.5205970159058924
H              1.320576435923729              0.7969549684092212              -0.44069705806886017
H              1.1532154936329195              0.8533947861418466              0.25495286822789986
H              -0.9908609230791653              -2.5471778738777546              -1.8990496520814084
H              -1.5672959049249504              -2.9194462599251              -2.14425568833244
H              4.13552377894051              1.0213882149556883              1.619412845288385
H              4.608331231671737              1.4903462475942855              1.2076851592839728
H              4.1531739119976745              3.6868584090380785              3.4588878154580205
H              4.283952051745779              3.895546957887726              2.8032725445045426
H              1.4419800421219608              2.177037826560102              2.4953495658627647
H              0.88624046720097              2.517817261294063              2.3744845232108625
H              2.6096255774830497              4.153070479298341              0.42104494756688887
H              2.1681641059829673              3.54990146705591              0.1954243465936101
