72

H              2.438334137207405              1.5741145204956075              0.963042359150999
H              1.6846484465792921              1.390616201095997              0.9372981566031022
H              0.6555707813552463              -1.102028412201743              -2.0669241272049486
H              0.4718400057716943              -0.46140240474847266              -1.7268064501107507
H              4.613220184157884              2.255400343541392              0.8597359377968605
H              5.038006859544433              1.7722635454246582              1.2305956691312536
H              3.48556218729534              4.468732404230949              2.7550278393774463
H              4.1938339657855686              4.451396048702159              2.9645069268760977
H              2.7842317435537876              1.9589182420006686              3.4235490525402184
H              3.1408311473629897              2.1139205807790384              4.066284036718202
H              2.5399009778499124              4.214406474363511              0.7935800183854899
H              2.874186709812061              4.183774002746008              0.07597522282104328
H              2.28548892677708              1.6454759159069128              1.0949243861677382
H              1.6532263566631484              1.405957545579385              0.9215001191096082
H              0.8257001831484485              -0.9931937008398791              -1.8127019942907112
H              0.43137992645696954              -0.44331092181516685              -1.5016626715781043
H              4.712819185276315              2.1199614473962054              0.7495953341548911
H              4.720339578368166              2.0080750573016295              1.4941146801305578
H              3.7573976927520323              4.340929356535332              2.9338674543176766
H              4.429853174896093              4.6912458904090215              2.9908331307335216
H              3.3918150307812773              2.289878628030137              3.435860749320922
H              2.8997102991586154              2.1881883546405496              3.8614127300103247
H              2.684411984048944              4.300767726410812              0.562456909395258
H              3.1471034908358724              4.357402182012749              -0.062983848027356
H              1.990743159477316              1.4618286227715853              1.2747847102328136
H              1.6757292722006432              1.6764274431460469              0.6317655041394585
H              0.5685101093613558              -1.135369730155136              -1.866304306388971
H              0.25756805617571255              -0.5108929175499237              -1.5790140666604793
H              4.644526205151164              2.4210038425996525              0.8292998896885039
H              4.813995453140302              1.919275377382854              1.2887258488366233
H              3.647119213343113              4.700756930193957              2.9123788581532466
H              4.39730775879783              4.782739604759651              3.0511410769113176
H              3.2887775575619855              2.205572941410563              3.5215497865139658
H              2.869144094566469              1.757807581218682              3.8715654621397206
H              2.905981017088949              4.304234436150527              0.6891410102262087
H              3.2415866461817266              4.232298412863772              0.03552803818483126
H              2.2835486135453413              1.1681902562022168              0.7738025738957174
H              1.878238818109879              1.7837084455692893              0.8524633951514928
H              0.8877798436013484              -1.1590232055744023              -1.8957016135413034
H              0.10826178932790584              -1.0164688174154182              -1.6087168319075242
H              4.737570446672245              2.1906856538990254              0.6993548388323944
H              4.946085197393494              2.293637741474591              1.507447129582103
H              3.6277661598363973              4.559310271093393              2.8440479071633082
H              4.302877188324387              4.678864371002816              3.0861787392285884
H              2.7520308271946066              2.404795188807981              3.561117380139658
H              2.5435369162354386              2.067827566672003              4.208591850218841
H              3.103484506994736              4.218931150481464              0.7495028204036612
H              3.086058816344864              3.8944114847805302              0.08442458493571008
H              2.4852454918989206              1.5527516995395607              0.984649934427405
H              1.8427329227866867              1.3784252111433615              0.7167850642296593
H              0.6231114770377314              -1.0963678287654934              -1.7993042678568174
H              -0.08720333072517175              -0.9792612550095717              -1.8309819603274684
H              4.784330955864613              2.523501603360014              0.8173021340842378
H              5.063983053525294              2.297736404242003              1.4580465388699004
H              3.8439560975676463              4.4298986381910455              2.6041904883737956
H              4.262307388425698              4.86867537693587              3.0067679252497594
H              2.6162284431394527              2.5661317165970026              3.5357914082531248
H              2.905186457719456              2.410948860938375              4.144553609192689
H              2.6150475679736953              4.0160212174872365              0.7886555803684215
H              3.1259292768906595              4.019668971411171              0.29155720551492503
H              2.6272065629067534              1.3914353493478366              1.0972605231562125
H              2.001228663804269              1.2430206842138143              0.6944761317152144
H              0.4495926426010078              -1.076297402714719              -2.135346372917531
H              -0.011194818700254365              -0.7261093473249299              -1.7165418943459296
H              4.449308520434124              2.4998725637056567              0.5115034524655533
H              4.827508610769681              2.1726175812967763              1.1107578699166178
H              3.607735472594558              4.246034821193279              2.5914497273293304
H              3.9987366357661784              4.773212352417876              3.0519827598693827
H              2.971734452867986              2.4471175731607215              3.4098193383293705
H              2.9258256224585355              2.147268689468272              4.020237479552825
H              2.418960079666115              4.096336695803823              0.6584682304579691
H              2.8819170161254037              3.9715850113189832              0.1462893009535675
