72

H              2.22687691122593              1.376429673889394              0.6427921837353029
H              1.705139554038273              1.6829354930825609              1.0589368813014157
H              -1.0011754758967712              -1.0374997199431895              -1.7455012404631696
H              -1.2922067862845688              -1.2176713318846846              -2.359961314160518
H              4.778832265777901              2.206745770060534              1.186092474975977
H              5.1527493120483845              2.7261818237543074              0.8416800344245103
H              4.34993489658868              4.939180638447458              2.565567870792669
H              4.674704264755925              4.460843415763785              3.096457337193263
H              3.105335823117361              1.5175699858827594              3.8846375620310796
H              3.2128559833564627              2.1961561720865714              3.3780400336931673
H              2.890534720421383              4.483088633744627              0.8208204626568367
H              2.7870466287657965              4.037625353048023              0.2580177067420568
H              2.2470725720099045              1.35553489499095              0.5732149392116803
H              1.7277340289664125              1.6326995976597598              0.9587717078402928
H              -0.6208972379283108              -1.0375343244469089              -1.7230254208646152
H              -1.1161037771121882              -1.3550088799623121              -2.3061022272319747
H              4.700581071618688              2.2650006596875665              1.3193964868869499
H              5.129304693501694              2.4214295378935              0.7102479747549626
H              4.298395268341707              4.894715018390452              2.8295585967947767
H              4.384172688041533              4.1992221859251755              2.8954165481232597
H              3.4470291973433107              1.715106499719199              3.6906021837084584
H              3.0416670797296077              1.801436268831747              3.0632852760908276
H              3.309854100225164              4.568112826887479              0.6398843684683221
H              2.767765049288022              4.14808662154493              0.3405696817769732
H              1.9269446901232152              1.3331150417233024              0.6858962164745965
H              1.914569404430295              2.0391454913089184              0.6285865093030073
H              -0.6141290656338618              -1.241875688143973              -1.5881567895602118
H              -0.8977255772545822              -1.4085817725572491              -2.2600022417756116
H              4.954482976148674              2.398143596605742              1.6793707660000563
H              5.1414170124507566              2.3305151901317926              0.973704298470123
H              4.322410710201682              4.808134964954749              2.7606991521840505
H              4.465281383776442              4.068587736517173              2.870271090359971
H              3.09893431760645              2.085144887504643              3.8075343712613057
H              3.114719050356213              2.0011764208385707              3.0809308015963937
H              3.302381170601848              4.678421768506447              0.7001962381302871
H              2.9809033408309595              4.230970146742033              0.2265639113403762
H              2.247751786746727              1.1930641511764548              0.8929847781894558
H              2.0555316914602355              1.7447523521700765              0.44692933705649085
H              -0.9594330559815331              -1.3073881390221547              -1.7263413925546232
H              -1.1231060588027473              -1.7214267664203948              -2.2970264786294496
H              5.054690995255404              2.2519002807016073              1.5410721785437167
H              5.031775916200708              2.8286722102233246              1.0269755454225462
H              4.5029535603566755              4.7175152169357375              2.5964378089808338
H              4.4379766329279855              4.081131165021231              2.957368792738384
H              3.1558765290277573              1.8067190123143124              3.7575328512520176
H              2.953459676625971              2.309149796495882              3.314245714311098
H              3.208311361076881              4.693156332717494              0.24528733168165406
H              2.5747835551909644              4.35695946947397              0.29576055878783697
H              2.453265556683315              1.1913619315004589              0.6852997260538621
H              1.8740401958927149              1.5552364427977783              0.8806846882131946
H              -1.0312993514660584              -1.2905779884807587              -1.9106535583633397
H              -1.2054980793554653              -1.822051040415269              -2.485766272158042
H              5.081418855164862              2.3445682916451878              1.4459710485882855
H              5.367314150676081              2.780124094996846              0.9399970129615499
H              4.47487803236444              4.811906193430767              2.9104255431052932
H              4.340214404998355              4.111356208839861              2.7511952772950217
H              2.799424236673697              1.5278502811252506              3.7365382909296323
H              2.8022914424922902              2.0845174412837806              3.1707873517291953
H              2.9725374768191677              4.488492803312978              0.17707283791055553
H              2.5119674985206184              4.059587269754905              0.5546851627617452
H              2.4072201015136825              1.1183979682098404              0.9850314904648187
H              1.828498032838314              1.6430649976481093              0.8103353901173517
H              -0.9878889168973465              -1.2333873421419885              -1.7614110296133991
H              -0.9815507160193414              -1.6789919421471131              -2.4046910875884446
H              5.095397792613812              2.4045000962478054              1.3713672939264692
H              5.1628148236913205              2.730261395605778              0.6454524751163725
H              4.6058279369514485              4.746798771945537              2.7775353799611393
H              4.445246788015567              4.143068045377107              3.2359007262626807
H              2.6678034371486596              1.7943269241377562              3.7873684381629005
H              2.9159029868789186              2.393981879665015              3.5173411352343265
H              2.95211458483734              4.671445770721755              0.5325024513245578
H              2.7037719412285095              4.000228450768479              0.20118064781545028
