72

H              2.377801214693056              1.2670625773055029              0.560546706132025
H              1.9972214034259035              1.8355432479385265              0.7784228222294801
H              -1.3869852862218466              -1.3517845825737886              -1.7110822020877106
H              -1.231620624305552              -1.682558231334398              -2.331356117795171
H              5.035115173203119              2.455462686920764              1.241045022026511
H              4.867765326573863              2.4452101285566967              0.505793750828273
H              4.649346766785527              4.667472996967585              2.929776298093586
H              4.575287864846392              3.867328910296551              3.014375614664462
H              3.4664096725875235              1.9229078623841118              3.4998309111859798
H              2.926156033017407              2.399865830352682              3.356211508621646
H              3.175592509728228              4.5396960354242974              0.6784656600633151
H              2.5323743759584416              4.654460835596776              0.32033569920378857
H              2.6157645986216242              1.6215268775312308              0.7923374267747528
H              1.8916343263914983              1.7127141431567539              0.743612889785535
H              -1.7413065198434032              -1.5166132160119277              -1.929973501741721
H              -1.4022421125682318              -1.7600056244773894              -2.6472020431024905
H              5.1881953173765805              2.394599491782885              1.22361802337219
H              5.018100680676517              2.4995899694495436              0.46600045973978604
H              4.4400768668952315              4.700922156439395              3.0247626401848975
H              4.465474372999327              4.0083811387206545              2.8770459926830463
H              3.1115891503253374              1.5367593693114485              3.533986101605167
H              2.7583002685324534              2.154479372102873              3.579428430206774
H              3.0131289874316054              4.649972584257027              0.6873152725156347
H              2.5791330559808543              4.205996939729365              0.28030496980905406
H              2.6386535134650546              1.6222837992165147              0.7134711219449849
H              1.8894047190063723              1.5027074369578113              0.8260942702618719
H              -1.5761701752643296              -1.2540947311478552              -2.117058098655087
H              -1.1362172919125972              -1.6856267063170385              -2.562326135161671
H              5.269920335460361              2.2710471456961505              1.216294521809719
H              5.010894265898764              2.608328583519474              0.5733339591020556
H              4.543001831549109              4.731915596146516              3.023417449582999
H              4.59851242495471              3.972447520481608              3.081847280932799
H              2.8843295306209202              1.6526024771022356              3.660942143576318
H              3.0549157399963947              2.380123144071452              3.578512319907999
H              3.0088504548036656              4.253684522476623              0.775081612922861
H              2.426150301408378              4.130120223995658              0.2988342143988115
H              2.259683969219889              1.5508773318209566              0.6638896392081892
H              1.7732293656552265              1.9253853839022028              1.0744192306297442
H              -1.3939979146452752              -1.1378633543569938              -1.7876475448434639
H              -1.2681286643954703              -1.2243483234306856              -2.5072164643896055
H              4.681032986809959              2.513638168008724              1.0245423307195733
H              5.0461277344240445              2.498010164716983              0.4050997540393027
H              4.4439740122033395              4.809351632658901              2.8068054141535543
H              4.861100906585931              4.30318196345765              3.117240185371974
H              3.4606993686200607              1.5441957665271993              3.6219001944811047
H              3.327356198264717              2.2332551389334636              3.4773539893059238
H              2.8293123493637666              4.466367344917053              1.120522252610998
H              2.7764949418701765              4.454693815541195              0.3601628274757543
H              2.2932694283465462              1.3515962210112387              0.5928733786333322
H              1.6954673716687303              1.7585271970403507              0.7887188827470326
H              -1.3248916844144016              -1.27111337141336              -1.7075965887502165
H              -1.2150725365039359              -1.254899338381491              -2.4828991656131003
H              4.9333693052296415              2.2109320432757045              1.0656108146738854
H              4.736779668380032              2.1555453144734464              0.367057698080671
H              4.179041563205012              4.706400046018394              2.8568040018699947
H              4.525422123850332              4.154399087549047              3.169112000101957
H              3.746768603142536              1.801264515026189              3.7297410948135648
H              3.1021276678998104              1.745604984472187              3.215283246101285
H              3.0496040542172578              4.455826957617317              0.9594858576896129
H              3.0858200476753703              4.405471462812718              0.22941628767566358
H              2.405608672698921              1.578368236499188              0.4339565173486795
H              1.7389873147118193              1.9613554042071657              0.7161587800185341
H              -1.1118263280805014              -1.371377537887825              -1.7637873465117961
H              -1.1552700687054251              -1.411046098934801              -2.5026933598434127
H              5.021991526415231              2.139845158091351              1.5351377625449014
H              5.229472996829282              2.2492511950880028              0.755203075078203
H              4.393030972227266              4.675785829984087              3.0111037482418337
H              4.60823713155295              3.9705368317882095              2.7761834429525782
H              3.5388344146279933              1.752638522630804              3.631608924297429
H              3.035034640701013              2.092295049719516              3.2936009545756737
H              3.3052201867885467              4.534867372795351              0.9464403756043829
H              2.8702950830712286              4.507654857006926              0.2982447843265514
