72

H              0.6493258091733933              0.883950156782339              -0.5065935058256293
H              1.3464411158166885              1.1471016535524918              -0.27508886948362415
H              -1.5002440984165974              -2.1956797090409013              -2.4042025944071166
H              -1.9359636477303002              -2.3508225521472026              -1.8471897696316268
H              3.599829044281511              0.9636086326035881              1.1655193459747528
H              4.21926375441124              1.3534466691932152              1.338861954966617
H              3.4990868578689924              4.038610056820552              2.539228509588545
H              3.7850625053893996              4.005573936432037              3.212777018823561
H              1.353194343478862              1.9028938319381203              2.648409486527511
H              1.9227112701468005              2.299537410970264              2.3425033046557595
H              2.546208364260449              4.046963193616787              0.2774027942877637
H              1.8411863859090318              3.855846862078377              0.3500889037095284
H              0.7226341293675697              0.9587291668843627              -0.5923263788004213
H              1.2294065632695674              1.2668919186005112              -0.1270648803965325
H              -1.5260544990063032              -1.9730621915370241              -2.498915090579428
H              -1.8572852646956213              -2.3952263891146464              -1.8365747135381854
H              3.450694271587862              1.0291057164655062              1.2868430567432172
H              4.102446918455036              1.2640357365124093              0.915708570844862
H              3.660941581928753              4.4870769671197035              2.4640926222122097
H              3.973169254499261              4.060414597028514              2.984372171857054
H              1.8097400907111298              1.9122882335218918              2.7954551523644735
H              1.781241139685696              2.371162340578066              2.221030644245018
H              2.346752976967267              4.091692402253836              0.3584153460895861
H              1.5717954212206404              4.204116463992947              0.4835818862390769
H              0.7969702544666574              1.2636917494349553              -0.4908437365887774
H              1.179754862379028              0.6885406699351524              -0.45725576901273157
H              -1.5213028524637522              -1.8037967014219525              -2.3101488914500763
H              -2.0374995315778257              -2.3046050356935717              -2.0326983882084515
H              3.786383898541154              0.9150279584450891              1.0065702864997976
H              4.04851501022815              1.5804502705738523              1.098275341728635
H              3.776115017429669              4.28334701653596              2.5313274799047507
H              4.113221770133565              4.327575132667682              3.1888539797992648
H              1.5140709630932319              2.0039287269673083              2.9968550135878487
H              1.6474428635450702              2.1712403270304277              2.3484708771229617
H              2.4646221724359183              4.00363153580243              0.19860295004527614
H              1.7904471594553044              4.2442652866310135              0.4108910973632255
H              0.7574999671388684              0.8021354696190086              -0.10691674849322304
H              1.239853036488071              0.4713919014607425              -0.5145578287951822
H              -1.2709745936584977              -2.0107208489085706              -2.4491280006528346
H              -1.6908208063290626              -2.038426952278283              -1.889406689932328
H              4.290621216543305              0.9317697967492717              1.0207864161833409
H              4.350838074827386              1.624798656438526              1.008992682904179
H              3.832233503522856              3.9662956994873158              2.558260978923979
H              3.9928986377989197              4.3394056321555              3.188917822245593
H              1.5277445576070223              1.9853359158971584              2.9771577553424926
H              1.3979534574198236              2.251087660163349              2.2088424570849736
H              2.479922809991178              4.412280455035806              -0.03578802076752806
H              2.0763431148346765              4.109240334991394              0.48942337565749844
H              0.6688130549871067              0.6850354131889185              0.05711605047944877
H              1.3003522041615674              0.9875383540464339              -0.27796828365260207
H              -1.011802993484706              -1.848731136309973              -2.194807515611821
H              -1.489071907285397              -1.9172250740831076              -1.6914339941388314
H              3.6419458610904134              1.1283680073180862              1.0926467672663671
H              4.0099552423039135              1.6960086290447633              0.8504256466878143
H              4.057656216812809              3.6885898713928196              2.4894065136171606
H              4.045589536718545              4.129029116643343              3.191986363290721
H              1.6620834077283066              2.272724326170545              2.9779796874952953
H              1.8106436893335331              2.009065112426715              2.330692079142168
H              2.615169362388013              4.019063762906387              -0.02601256288842482
H              2.054255182344851              3.8558940968523805              0.5241593338518198
H              0.795823701959524              0.7175761191810304              -0.1578445363961519
H              1.3176999916017205              1.2083137710336018              -0.29540236668374836
H              -1.1765484917535403              -2.1767677484254495              -2.0260476772821274
H              -1.7083953004095374              -2.0216886677115418              -1.6564150522763845
H              3.5956972197592316              1.2752960295911966              1.1181282445022338
H              4.116859936678107              1.71477434617218              1.1701779859274266
H              3.7320186277500924              3.8676887261715027              2.4878648854776277
H              4.232700295689425              3.9392966545737367              3.0181421440518004
H              1.4976139786743496              2.0761861439183678              2.8420452541634162
H              1.9991541140580658              2.046708464605776              2.240395298692893
H              2.8320223081360703              4.104534701844715              0.4255922606069461
H              2.106419329864529              3.95929051554001              0.32017155348643345
