72

H              0.7335598577561209              1.0036363934150285              -0.44454259256164913
H              1.2338703437334977              0.8674773444549767              -0.9174868943056762
H              -1.026470951462489              -2.423818761784841              -2.3396591032146596
H              -1.7215510738551338              -2.604833430492041              -2.2788306294492955
H              3.729522461804072              1.131507267023384              1.3983063987055078
H              4.160285304888083              1.4400391020215613              0.9082786604161239
H              3.5987936921660064              3.884332398598134              3.1275093758034362
H              4.217038126380817              4.180610491889868              2.842367463850789
H              1.9813836017123827              2.2642665845050356              2.793538932742219
H              1.4632974704864263              2.3490564038589477              2.2217795570654766
H              2.8124652981868175              3.6217799886039703              -0.09958869165392766
H              2.195872976087133              3.7911521614821617              0.29885903839355127
H              0.9676670280780384              0.7141934066774007              -0.5466141021570966
H              1.6099033736937682              1.0904508532158221              -0.658194896909549
H              -0.9109890396303357              -2.5702801805792834              -2.2557650147922317
H              -1.7611050674456064              -2.644558588305239              -1.979705306764243
H              3.752360229221588              1.0183164661121615              1.465006886734879
H              4.434686618906071              1.360146732401597              1.061730989876898
H              3.7776553426766055              3.693548234423561              3.1346665019274047
H              4.409146299324451              3.993430837031019              3.004804801901496
H              1.7643916763653846              2.047086278878488              2.309833858644475
H              1.1419984575662565              2.454964140609979              2.46876226772872
H              2.6257044632123243              4.240120799881435              0.14279303820757627
H              2.2244710224158712              3.893327179996459              0.5825453936884478
H              1.2245192824596414              1.0571518405968972              -0.7365985049593158
H              1.4855793239744362              0.970480563321843              -0.07191793109920709
H              -1.080438546741576              -2.283500676415542              -1.9143422097562552
H              -1.7466219750050025              -2.740102347951459              -1.8540655869027707
H              3.879613323857195              0.7879275239420851              1.4360498321667985
H              4.334797931603872              1.3258954189089598              1.2953306383698326
H              4.01421530230661              3.589515306095238              3.2482723933145694
H              4.422550617867506              4.126898963031482              3.020400971530387
H              1.216189253008209              2.032129538207712              2.9146614062189817
H              1.3083220713492045              2.311006613378968              2.231280615302762
H              2.4904922774593268              4.096676002805936              0.3540522747703414
H              1.9969320436862878              3.624519062830225              0.12329725496140044
H              1.4188468298815586              0.7102233735957041              -0.7422978221963609
H              1.5407104116822077              0.9939584235873747              -0.06141460695064837
H              -1.3330094670996766              -2.403806056483349              -2.0269741401558887
H              -2.0196759664453334              -2.484877058864603              -1.9416053484606888
H              3.8299205864034347              1.0999398667068652              1.3252508201537108
H              4.459350466459467              1.367774657903558              1.0381096889900072
H              3.786414211459718              3.9375855786031764              3.1074696140766696
H              4.440981138419425              4.131279604240858              2.9249958887408027
H              1.6739773897266714              1.9037290443072887              2.6896841487755836
H              1.4176016018356823              2.423783065752502              2.11999374015207
H              2.7319366207808207              4.070200375020543              0.2496337292131695
H              2.062202956572846              3.844174413552341              -0.09916382711755974
H              1.2349191081268427              0.6282983319041191              -0.8116414433625929
H              1.4495239837389784              0.9539392572759297              -0.10671885522231489
H              -1.2076714899741596              -2.351605778751983              -2.213112005891924
H              -1.9701136287857703              -2.5457473143065052              -2.1845302830091176
H              3.8789297719730556              1.0280995413843084              1.273660711768043
H              4.535265653966563              1.2910594445783614              1.1879024915395804
H              3.648820091464823              3.591415034855755              2.9824984199102635
H              3.9536251371281637              4.214281132217913              3.3327889845057106
H              1.4388142107018729              2.0711071779264687              2.8325272306569897
H              1.2303301140227179              2.3919806151944747              2.22279448801398
H              2.657190939733052              3.7390634498779876              -0.40844598925447023
H              2.1317133326929203              3.7675904397621345              0.13649949049014046
H              0.9311652203572949              0.7017681368118699              -0.47406104669528154
H              1.6429928343181748              0.6015407532521874              -0.44247880754013247
H              -0.930315043760418              -2.4160720781024043              -2.30055935878263
H              -1.589569550318192              -2.6696545678422847              -2.2341278999316017
H              4.057863186422352              0.9540599804396998              1.5974848737621206
H              4.51356470697327              1.4581468112644937              1.1744404488922597
H              3.625218874823071              3.731172683650439              2.9319853904780007
H              4.032094129842557              4.324243980538725              2.972349525866412
H              1.7712874141753934              2.3454326476417036              2.842107488858135
H              1.398502364037116              2.3083401474466294              2.1682585529774405
H              2.7318044749768737              3.620716840675571              -0.21919428207710256
H              2.119280871954172              3.7990839633627465              0.21255210994798926
