72

H              2.3107663475241593              1.3537586012423921              0.6884731518501119
H              1.6994711635971513              1.7835555581444742              0.718082499368308
H              0.589853194493148              -0.8813791637815742              -2.1832253725697717
H              0.5841083656155158              -0.14122190728703857              -2.1521821430568435
H              5.559128146721392              2.738272590181868              1.4790246149717228
H              5.132717808788768              2.0716702063159973              1.5305481003650832
H              3.9856887576722007              5.015743799844631              2.9186442203970624
H              4.372654318885606              4.457231860320696              2.8955021399556085
H              3.0397238272569242              1.309895167230812              3.3709363204611265
H              3.412876152896621              1.7774872141362388              3.089723023532493
H              3.3690214553738755              4.016813211638265              0.6172509166988601
H              2.8736650111129065              4.4875180730710635              0.42251365295897964
H              2.445045261516775              1.3185024288540863              1.0220407922856574
H              1.8422110693772715              1.522975074256276              0.7782483942954875
H              0.649584941377194              -0.7866774197712807              -1.8229089467835986
H              0.5325764086817857              -0.03199622119176605              -2.102811887065308
H              5.557740845432293              2.671501769146123              1.370166259467655
H              5.130321795865537              2.1106324684825712              1.0084047954449844
H              4.1274229808922644              4.630090302001781              3.1625717054959153
H              4.438464301116692              4.226326670564516              2.680014250514968
H              3.100045856767521              1.3400793581477681              3.489686939511856
H              3.1834562760148817              1.9103668025303382              3.1193858768343903
H              3.167800086102264              3.870075973326522              0.583622600411699
H              2.6659324118828964              4.4366686691676644              0.7174356224891266
H              2.131442670732884              1.4825224662951153              1.152343955859743
H              1.7925714993406963              2.126686823771834              0.8241441263403336
H              0.357166008922045              -0.6409899863846906              -1.4580474087896718
H              0.4469335615398542              -0.1431404422211569              -2.013041852237364
H              5.336602307927046              2.498593142115113              1.2796065090835835
H              5.330332971064664              1.9249105677513836              0.828602079991241
H              4.054338867478626              4.328432017681586              3.281743382549133
H              4.416951185720225              4.23126298919292              2.6087632947553696
H              3.455503785731674              1.3507873009671483              3.5384634754525592
H              3.1199700886337056              1.942042760310341              3.2710815154891626
H              2.9004444048799654              4.030612858760444              0.7550618109152432
H              2.6791123180759255              4.694693460220399              0.49087335379854125
H              2.198819614178398              1.365760160996066              0.6065089203974464
H              1.8732493146331923              1.854701282166137              1.1023830824206269
H              0.4231885878340401              -0.5773280604985633              -1.7283605275684084
H              0.23665976842087655              -0.017728400919063095              -1.9704598883408353
H              5.0968856781787              2.464545103886891              1.3189147471397582
H              4.946295488368166              1.7557054782608945              1.4053759929592475
H              3.821430652218815              4.578642890801645              3.25985696151245
H              4.2831954045024005              4.21285407663086              2.811054095374284
H              3.4542034116431277              1.205231655840605              3.3313767708746713
H              3.1204267526925245              1.8345066411860984              3.2652847424140155
H              2.882927926676217              4.050787188584139              0.5905780625260156
H              2.7606377890178027              4.580754485209574              0.1077847798225871
H              2.176720691925969              1.6521009496608352              1.0408223056344208
H              1.5323011677833343              1.7388189722421052              0.6616298171356719
H              0.8416195931485315              -0.5916800273889564              -1.855320845011267
H              0.3784163537491267              0.1430266778260545              -1.9084752174002166
H              5.489600993422938              2.536881543622683              1.2159323579435626
H              5.130314336826457              1.7952511513223086              1.2635385605696121
H              3.9425836879677534              4.919856785311766              3.090042790722896
H              4.258923797318498              4.481175015261389              2.5814637195461647
H              3.4535075678816796              1.1744043086156202              2.9965063592676024
H              3.166408894196195              1.580389808236619              3.6131247873531795
H              2.8409589811363185              4.176406505678103              0.6994484859913315
H              2.991339973030123              4.875948776213369              0.5195846226125987
H              2.1308943418501456              1.557450160805195              0.849522590424465
H              1.4434513312383743              1.6088128096265673              0.5822280998672146
H              0.853283562429377              -0.6588906914575134              -1.94945292636332
H              0.5921963426568295              0.06659658891215167              -1.7967059431316055
H              5.588894374491958              2.4129984379846814              1.294679452230976
H              4.940106482067419              2.035388141765697              1.0697648160092343
H              4.003881026148041              5.024593423616052              3.1817106425209585
H              4.083512533138725              4.458213245448068              2.7516029543469624
H              3.4904048267495824              1.307892112437219              3.266832253496402
H              3.215853793321631              2.0179364389477663              3.2701484542989916
H              3.0722606758432307              4.0975820714001925              0.46487240201825203
H              2.9456511080349785              4.785571964007684              0.4989843566384431
