72

H              0.7852115841015902              0.8546187503694537              -0.3995647539460534
H              1.5231078181310578              0.7507016691434744              -0.5428077700573782
H              -1.2409333426500957              -1.673179260982549              -2.449343448957224
H              -1.4512143327468798              -2.0746402048205              -1.8441886328031787
H              3.642652795295729              1.2854009027132305              1.0332867793697327
H              4.091567611172259              1.7908138354306509              0.7270799451529141
H              3.9722158157833363              4.373608837996261              2.2681843821194754
H              4.06655095531013              4.164231985668828              3.0765853379209034
H              1.690383668370971              2.2076782089488436              3.0747229026412537
H              1.8040828018107216              2.0477787522677033              2.407968851892601
H              2.5179344325989703              4.028486211937419              0.2749478630008798
H              1.9288828918160195              4.332760064699743              0.6893983724644058
H              0.8261149256056814              0.7072231548368653              -0.5652072494505951
H              1.5362221589507215              0.8011554761590083              -0.4555302745427889
H              -1.4103319014648201              -1.7473885547465922              -2.225636098502725
H              -1.6572419001418652              -2.141062172417184              -1.7871736315378246
H              3.8190650518264735              1.2476205264092095              0.8854132546847387
H              3.97380117078089              1.7885151467338485              1.2230307771276514
H              3.8783837899437903              3.9141036022276654              2.4821280018206737
H              4.026546524981662              4.1290435917207695              3.192846962261063
H              1.3006234377917856              2.1711128277943184              3.0045016511624665
H              1.6814757911698648              1.949475494307169              2.365662160270012
H              2.617301097562502              4.289901955011096              0.48374446259980686
H              1.9515706153162085              4.02040950658318              0.7130720233589685
H              0.862304665982501              0.745057713467117              -0.2976320736161109
H              1.5527119238681386              1.0270241850668944              -0.19129830089591432
H              -1.4632901246013172              -1.8535018480610346              -2.2297137014867396
H              -1.6439948076155964              -2.0050086379873893              -1.5826169830680161
H              3.5427102332251157              1.2107163933806724              1.2044117385619286
H              4.152782784112221              1.6459499583529678              1.0511103177946493
H              3.9748034347130403              4.143551829500056              2.3494448937376053
H              4.016489160197103              3.830948700638907              3.0922386138290388
H              1.420210669393518              2.0076653369957866              2.722719217143853
H              1.9341683671602579              2.156632909967408              2.160730350271874
H              2.4079641507560057              4.4283990098919555              0.6323799575930372
H              1.7842607719892616              4.0035281606617055              0.7788405870825708
H              0.8286657659598562              1.167477597415631              -0.4170523183674176
H              1.5799072035915478              1.3138032959143537              -0.29500151994428553
H              -1.5095940058776716              -1.6917053984445878              -2.0862240777323935
H              -2.0239664521924743              -1.8716470193701225              -1.5869549476033744
H              3.2971576453237614              1.2114243077598392              1.0148365127645624
H              3.838976600457022              1.686092463731245              1.1092806729066433
H              3.92748208790908              4.248537750432007              2.410995147379123
H              4.0298304115702495              3.896134600247894              3.063600680320649
H              1.3982229625931017              2.162590311441505              2.7017828734257083
H              2.102014041822605              2.04404315084577              2.330577196602947
H              2.437989194785097              3.95965955362501              0.49774091461975817
H              1.6665188677636016              3.9642883874680463              0.5045664905233312
H              0.9216741686183665              1.1250466004485535              -0.6846479512317748
H              1.6015231007622894              0.9198250214504071              -0.5005830550467091
H              -1.5988778985741356              -1.9919259772633384              -2.4590762244554494
H              -2.0668447239735244              -1.891902460683487              -1.8643505918756957
H              3.9145592981725827              1.0709503710016195              0.9690736502211772
H              4.372921350208163              1.6287788079289842              1.2209245458411817
H              3.7041770536605254              4.46083603600604              2.4508176600528206
H              3.744782001236921              4.095020623561059              3.096155523621641
H              1.296335743571052              1.890237400479512              2.652173302336251
H              1.819269998776554              2.2861369720743356              2.342971129687189
H              2.51181366751985              4.094346975197383              0.20865766063603672
H              1.806832724001244              4.117076038267686              0.3323911019916455
H              0.7276826063624667              0.7748883061618768              -0.4152741286672659
H              1.35557283316846              1.0215532744150413              -0.7064298535704063
H              -1.3976867764178975              -1.7807281457935344              -2.7431714278948225
H              -1.631838193064682              -1.957308507103448              -1.9696376965683824
H              3.8908088132444734              0.9458904023509688              0.9228270704058041
H              4.21955509534285              1.5984536143261305              0.942332150233657
H              3.8051872642749984              4.324117300760045              2.4897547557929984
H              3.4968437461556436              4.29949533532632              3.1699873963340024
H              1.4832514300910968              2.073531108923705              3.07218337540344
H              1.5657533419620564              2.2254899146900087              2.385484234754032
H              2.1958892225695252              3.90992706104778              -0.1959495833083501
H              1.9095798666205883              4.002295656513445              0.47933676852969265
