72

H              2.6721249749162284              1.7416049447914692              0.75062680002443
H              1.9046663214420188              1.822227445329005              0.7018412204815844
H              -1.5967922754711992              -1.4669553719979562              -2.1276953570308987
H              -1.1456073118664127              -1.5609843003526023              -2.722231893253741
H              5.096630772301916              2.105910623863865              1.1456786828010432
H              4.889468990992874              2.4139563745484693              0.46058807278960634
H              4.145457382263665              4.712001632488589              3.0958648380231364
H              4.591303102797773              4.168265647351035              3.0217610685844214
H              3.528680403731191              1.5104492380434817              3.4963898569647327
H              3.1160075078917053              2.0119546802862898              3.4011473798184313
H              3.114773402267877              4.1798626365613485              0.9729546411237341
H              2.5477619369147613              4.268793180489771              0.5036918426907938
H              2.6877446222399106              1.805127758403336              0.6240084323054497
H              2.0550833251282272              1.9390099996642804              1.0115526784639788
H              -1.4364637139489864              -1.4924080902601262              -1.987207749978596
H              -1.0953904063184494              -1.6577460911016968              -2.6601391244083286
H              4.8191897086193105              2.3377564315883337              1.1664887595358044
H              4.9221498294071475              2.482873700259768              0.4398953908233675
H              4.597432004680903              4.529555074969808              3.2495115283924334
H              4.680412324519717              3.8342098439354726              2.970681721026426
H              3.508813458662487              1.5043872349651335              3.240376858035817
H              3.1151658593672034              2.081886698366529              3.2434057380240238
H              3.2131670422049687              4.357716244339026              0.829632421914762
H              2.465583286799047              4.459032525793132              0.6341900701070596
H              2.27979713690119              1.792060167842987              0.6719599851907136
H              1.8646525939032115              2.205706401087534              1.1077817200441016
H              -1.6858277148348317              -1.5325466112088908              -1.6891759866733105
H              -1.4209385837569302              -1.3501954901878295              -2.4206196637798723
H              4.862475017571171              2.4863287819221154              1.0880048155479611
H              4.627384585929237              2.283831469685983              0.3938116219260108
H              4.624684653266599              4.530153522960064              2.9022422399420504
H              4.851195816613562              3.88091807340549              3.2012430677101564
H              3.2569963242652133              1.6105551032288667              3.634669002427777
H              3.0467756461822812              2.29969891201954              3.287897679696068
H              2.8901192650142264              4.585501501488239              1.0546685424159112
H              3.0184178272530415              4.485691917326338              0.3329136134123317
H              2.496458946753259              1.8777062136338425              0.6245157803314568
H              1.7669931005822872              1.7553795078748582              0.8438988037991926
H              -1.9181075184798502              -1.345174858494483              -1.7725649871645945
H              -1.6484558862698302              -1.3426674322492826              -2.486375290014046
H              5.159388707641094              2.217654642291001              1.2359843242651432
H              4.657068759973001              2.499016779211093              0.5929688055899861
H              4.641167541859047              4.630707316445698              2.702348263014705
H              4.727351465742358              3.994478293636878              3.08360149750178
H              3.4486490595341786              1.8497599971298755              3.478427089312092
H              2.8878609211242696              2.089516475782483              3.923561531132713
H              2.781526096353663              4.579112264110455              0.9256550171410972
H              3.00712155342868              4.461216469240459              0.19854146836660835
H              2.3297254930809936              1.6355156937192745              0.4510671247041488
H              1.8578069460271782              1.5347193892649769              1.0466048514934727
H              -1.6409086884029451              -1.068612517536778              -1.8849822646079522
H              -1.4073210146937287              -1.3729597381317071              -2.51556706255324
H              5.084620114626055              2.579828785180721              1.3301746189246622
H              4.801379997458325              2.5162942740793057              0.5811254068140449
H              4.476768360545134              4.8174677278614295              3.0171797227108272
H              4.743993453665512              4.135074903608781              2.7782446833300414
H              3.598326431607948              2.03133174575044              3.5951957448968823
H              2.892320658356511              2.0433645410379193              3.4240068082864097
H              2.886791259743616              4.276453830503314              0.9893344809296506
H              2.6227304622915733              4.466840754482995              0.3190667501543006
H              2.351755706451402              1.3430360949465256              1.073229157712511
H              2.0165948586206066              1.7631629704979555              0.6202717924948759
H              -1.5170636190942495              -1.304221073814727              -1.908883024349297
H              -1.0737239044248126              -1.5309329886739682              -2.5056445027041794
H              4.978728436594745              2.6264776552988116              0.8999602136598187
H              4.699760545108829              2.35016058823944              0.27663523040455185
H              4.230482610831764              4.800062246723535              3.1425332422801575
H              4.661026520354772              4.169168404264106              3.1122441594999377
H              3.5588736553850495              1.844994316171668              3.5144699487380873
H              3.0256266816014143              2.377886655032542              3.5188024276792045
H              2.990458738390782              4.478396613227584              0.9691271531843639
H              2.7639643869415194              4.6098979418815205              0.2783922808621671
