72

H              2.3914165984076807              1.4662250313991916              1.0816250185705876
H              1.9594322346725535              1.8836363488956362              0.644398237029983
H              1.0718878615905765              -1.014297944614391              -1.7781938212835553
H              0.47947155171865197              -0.7179674048142222              -1.6363021688003088
H              4.860890130768482              2.646759169958417              0.823382926198782
H              4.9370263881410095              2.0475990194799594              1.2622777814490416
H              3.875263154769357              4.646416233214273              3.1027804695321404
H              4.5467711062603895              4.821282672082746              2.921819629660769
H              3.133169149243946              1.978785562335419              3.376722346962366
H              2.749190397840065              2.178671168610037              3.8776949741748017
H              3.128871765089269              4.041928358599699              0.8269260793810246
H              2.8679526424281123              4.202325896624742              0.19320204445754324
H              2.6100253644175395              1.406712424539944              0.7845092618135859
H              1.960059132184235              1.7501957038899392              0.7140330161330403
H              0.7664134404740511              -1.1898701856616243              -1.888072743823085
H              0.09547948011641819              -0.7051810558482695              -1.8418227381565362
H              4.607664864744675              2.616409821298017              0.994544381332938
H              4.951805990484841              2.041289133733525              1.3538419848551235
H              3.6690018855399944              4.578606685330369              2.9974285357368533
H              4.38751611297625              4.623699702812805              3.068650039866778
H              3.0349241084856224              1.9399799704913092              3.3955686223405137
H              2.85291699903763              2.2005196941896887              4.050724561271653
H              2.8915806509435567              3.7787206756731178              0.7121224314123872
H              2.7505834302404817              4.10800342270669              0.10019497912043045
H              2.888768127412568              1.389781903171574              1.0075129474521083
H              2.1613187336230686              1.5659278200832192              0.8051968184838514
H              0.791862903195451              -1.056925455288876              -2.0400744814908864
H              0.2940621932616193              -0.5572848927541841              -1.8482796028097952
H              4.552247676595215              2.4927892246126353              0.9086358810047594
H              4.819789564025253              2.1527662195190773              1.4764097153725928
H              3.8031509654659343              4.262576385551774              2.7940853735152418
H              4.361379653442696              4.7661542504757906              3.0405015966631153
H              2.933530523586              1.7908259346662745              3.2211771334412034
H              3.041163702231627              2.0489844300875406              3.902094418067021
H              2.5848598999335795              3.869284491630742              0.727841383138472
H              2.7592661178995206              4.090504609016316              0.06897346438359382
H              2.392385198586258              1.7569928072253593              1.2329884591639506
H              1.8513458984711875              1.454499384948902              0.8537592232582129
H              0.7358582441815869              -0.8446841924422922              -1.7282276553575602
H              0.6159390096472646              -0.18574682186434896              -1.640625470627863
H              4.712389294707571              2.4167398946417475              0.9938955568168917
H              4.7622660803472066              1.7232212546374672              0.8837333308866926
H              3.786818504010393              4.363835002703934              3.185618989886999
H              4.418208217218102              4.706886115864261              2.8066536986288
H              3.3195378763655135              1.9072525403115994              3.0948355752613628
H              3.1245203521597236              2.093425867400447              3.782034524748512
H              2.328603765389883              4.030062230523182              0.6710311305574976
H              2.841968200727691              4.383242316982115              0.2471483228323577
H              2.421093740617157              1.7417637183500767              1.0594090894233303
H              1.6994310288577983              1.8624659032427802              0.7618306689122796
H              0.7844338049320794              -0.9669062408323271              -1.8310154348472572
H              0.5645345009052063              -0.25538723909646016              -1.5640717333271505
H              4.454423500763768              2.2367736860562664              0.845070742828123
H              4.676642876397053              1.783216101258197              1.4072389590989296
H              3.684138264460999              4.622218813008191              3.0811915874261797
H              4.399669251901576              4.635282406713944              3.023804818897082
H              3.649174611333867              1.9261380059958797              3.468790362987714
H              2.895287442241521              1.8488830636643807              3.6067867638395135
H              2.7349773763796374              4.036633121782045              0.4676988211283668
H              3.036802687910076              4.468968507868565              -0.06854546442916222
H              2.346277711671966              1.4784408350445442              1.043276077412988
H              1.7288530058565965              1.5868713887430133              0.6617708614784025
H              0.9910197398821377              -1.036184396676736              -1.9802751179307867
H              0.5632001164202385              -0.31498899812857184              -1.7045071571419914
H              4.803534050916128              2.3989362811743264              1.1087488468185893
H              4.753534274614669              1.8939735239348017              1.711444577847021
H              3.7957742895328894              5.004435713090704              3.0026934570218073
H              4.490453817725859              4.653705351955958              3.101187308037725
H              3.258438707783498              1.6155404413767982              3.243391799204237
H              2.9115482859806217              1.9006693135024284              3.786986011015067
H              3.123603620082973              3.864974374884067              0.45224720427942994
H              2.9409529688530767              4.487520450659152              0.10333288379118073
