72

H              0.7264107001736719              0.6911603498463773              -0.5151925038953018
H              1.3709899997079906              1.0259503710577396              -0.41150044738114316
H              -1.5615964076141793              -1.5155460783093253              -2.4512888224199476
H              -1.7018849907909184              -1.6717309033018368              -1.805842131665999
H              4.176877586488432              1.2865258283812098              0.6536149155565336
H              4.094418370066701              1.8424767887847597              1.1890841268790402
H              4.099095871018385              4.220398646248978              2.5071069087020343
H              3.7059518218069494              4.210835030577062              3.182496106947532
H              1.404003608843416              2.0656227003711836              2.9358086577843006
H              1.3142412153402396              2.1153499302012957              2.277660056920067
H              2.22832894503749              4.175097048643086              0.12213254515198772
H              1.8270779858970019              4.018270753481181              0.705851435489369
H              0.8657334189441261              0.979018151076633              -0.08660161590203219
H              1.4438103671483955              0.9831699626871089              -0.5185316469695552
H              -1.245384636176691              -1.5717654364290132              -2.3478056202668895
H              -1.4120051348484484              -1.5155161265806925              -1.6384983920861624
H              3.731065777754441              1.3857285183071575              0.8999754956478818
H              4.168944413636598              1.8904294662034282              0.8004708578345427
H              4.326051295012167              4.281401800799808              2.5368652890544623
H              3.8122089283576193              3.870093561082736              2.964256454631518
H              1.3719091978671407              2.263367815455837              2.7538158599085487
H              2.0057244743404774              2.046068733397491              2.4735102232387924
H              2.25211671369373              3.971676525681936              0.11320526415095415
H              1.980900586102968              4.087579988164721              0.7406452481306635
H              1.0455230865961518              0.8097961913731114              -0.6206223151018587
H              1.4328718407668304              1.3479721504468336              -0.3783651228264506
H              -1.2643441338057322              -1.6431737656870962              -2.2303477882470646
H              -1.6389632159840761              -1.7201627257476007              -1.5447571494771146
H              3.7715901364883693              1.331797519069199              0.7180961765364033
H              4.07474720115403              1.933452125129307              1.1406983084732933
H              3.9727422310128526              4.126319079917939              2.4028485931521915
H              3.8550563058924383              3.9695806715031097              3.121412325395263
H              1.2916198833067278              2.407399206919464              2.699159776352398
H              1.73132636218881              1.8149632028817055              2.845624027361686
H              2.572823885057632              4.037255150196272              0.4496081492666181
H              1.8781785278822545              3.8613024571870374              0.37052524350821087
H              1.0808431536023702              0.6264651898713925              -0.7102198375063237
H              1.4824637757173964              0.961206666113508              -0.19325966152671523
H              -1.6607588489429972              -1.866713888653637              -2.5430287328131835
H              -1.7344764719380423              -1.9871188474228734              -1.8566120432774427
H              3.756823214459115              1.262705855939676              1.0789873565867207
H              4.439369842904412              1.5910831088802726              1.0576842681901466
H              3.746625714500673              4.509335018225638              2.489638212282812
H              3.653998594580695              3.9320245867749897              2.962160396042104
H              1.1933658677234282              2.088494420610636              2.641374843526175
H              1.884310215275046              2.164144929765937              2.603071033319049
H              2.471558868162825              4.0981691314642985              0.5444611938124008
H              1.6972262986931181              4.128654638452178              0.5842332019152895
H              0.7805844059959562              0.8438044494583634              -0.42233102395980954
H              1.3884858754221532              1.0494186428643575              -0.25932210474573436
H              -1.6837153330534913              -1.5369350863159281              -2.5101161641466696
H              -1.7284347699934202              -2.001562522106379              -1.7924548642510947
H              3.300635448105604              1.2008862224975545              1.0497312090742577
H              3.895826155381536              1.7074275485867585              0.9221742181682543
H              3.907137448949592              4.649622086404955              2.496054524644118
H              3.735643557899437              3.9682247496575687              2.854214628484873
H              1.5433266107501573              2.0589304554603167              2.9732207792385683
H              1.6441784855467345              2.2106563338484393              2.2663779050055277
H              2.0840143891186806              3.977475739677104              0.4625049723776382
H              1.5304264843893338              4.186718872808458              0.9237807573058586
H              1.2149479537594412              1.0612644558262854              -0.6827434862978367
H              1.3284105896367404              0.6132164109313157              -0.17613101534381484
H              -1.6743102848573952              -1.3776259849755847              -2.340175625560174
H              -1.933664260545988              -2.0616474178353017              -1.8604344559889447
H              3.6310248742728914              1.2675837546698152              1.00047028201255
H              4.0011171931576675              1.9345723033418065              1.1341983157525302
H              4.1190578300050245              4.617539769705913              2.390303896077973
H              3.9880006020223355              4.154051904420929              2.9719323414202203
H              1.4095410781819568              2.138788999022754              2.828942843782418
H              1.8383038662670723              2.048281713308481              2.1992723356444577
H              2.318684037416995              4.092694703508858              0.6836291860130946
H              1.6235793038848085              4.324008238577883              0.7929665430737217
