72

H              2.347728665702641              1.67479487424524              1.1224928552446636
H              2.0441800152862037              1.8714272059725663              0.4405255003102437
H              -0.46612494009059974              -1.3053111333220047              -1.8724298697087118
H              -0.891146581333936              -1.6970036378192441              -2.213103650437167
H              4.977491511916708              2.179831728507744              1.6174899694524374
H              5.158310308459246              2.845536014030121              1.4132751492709121
H              4.401896219941089              4.9232030902460355              2.540846419358786
H              4.216145626838453              4.250658703784093              2.833428331864409
H              2.6180914439190777              2.0511507469899604              3.939229067706237
H              2.9496997923343105              1.8604701786336075              3.1525818621990065
H              2.9655421808980162              4.426433977055215              -0.023831028221697748
H              2.8638389761468726              4.006063743761562              0.5420638759010317
H              2.26475984856852              1.071402333902676              0.9363848418683571
H              2.1419265916345056              1.769974752718128              0.915346525524993
H              -0.37649369256652193              -1.186171391888218              -1.878596116746867
H              -0.896211362835511              -1.7058644559543599              -2.190805893490041
H              5.075202627526043              2.2653681954171896              1.3962324998579043
H              5.244161251299907              2.9824186233519736              1.263194120146009
H              4.511818930421569              4.867772263262081              2.578156257312076
H              4.40628599079683              4.35249217071689              3.0680538724399615
H              2.370042132382384              1.8874140356307214              3.693307372392371
H              2.9166425179953057              2.227699427421079              3.1985888748481677
H              2.8176081412120695              4.3614885619041575              0.08980694879241331
H              2.5294634381382255              3.874297123031934              0.5467457438509207
H              2.333727677607062              1.3634122856338093              1.0169269145444366
H              1.7793788072781036              1.8262073318604146              1.2149676926370485
H              -0.48809717158497856              -1.2469287493484607              -1.6800478254349864
H              -1.032212182765636              -1.4684943479328678              -2.146063012929044
H              4.814100433344416              2.3201120200114604              1.1023998791150642
H              5.158628172685928              2.906779691181977              0.8866407091432259
H              4.490393687913025              4.814613542576051              2.549882442757523
H              4.428838248477346              4.543214304337454              3.2703671975413973
H              2.63035357327013              1.8198592543970673              3.859161295984591
H              2.8099018502428947              2.3429730183684163              3.313046699896472
H              2.7012948010302527              4.605474628776594              0.39134557388403807
H              2.875416075992153              3.9012671513842068              0.38843678215591376
H              2.3928091287988082              1.5424411615527007              0.8909436007365804
H              1.703210540196038              1.5602621129464658              1.0752538960148492
H              -0.4968966975831921              -1.0389223906617215              -1.8406392123948558
H              -1.110029754656355              -1.222878880544901              -2.144756017949387
H              4.700777812644767              1.983596499315143              1.241503509233247
H              5.0730089958434315              2.739900984482734              1.1284838790695058
H              4.309459364669093              5.029377438555063              2.5563472645009058
H              4.323751328997905              4.54964703734926              3.136599434972765
H              2.6263439392407553              1.966008819852157              3.9028239539406515
H              3.0681886455824907              1.843483204588688              3.2485125130899983
H              2.8151154268564063              4.30518729415263              0.48561687525401437
H              2.919570299522066              3.6444926316587853              0.31578945346926246
H              2.3722501024294793              1.652064774188617              0.9530726129211935
H              1.7810102011196618              2.0669057681993523              1.018454770809022
H              -0.09271165434611521              -0.9737460559473851              -1.8374382818543658
H              -0.8625640532285687              -1.1651937924480944              -1.9633711931485374
H              4.505924606854385              2.2585111710029016              1.3799444529050515
H              5.060588711510225              2.6694093217257575              1.1370320330493044
H              4.254632486065431              5.025836955802306              2.559018690438058
H              4.538789239560582              4.49290159838716              2.9778769540613617
H              2.841413001425601              1.7139959302701444              3.533829994269086
H              3.2429006251845065              2.1804234239052556              3.0300652004664204
H              3.2243546332831325              4.429960493460384              0.659475214270173
H              2.7523524511886              3.899380720414032              0.4513934637568618
H              2.0906833550619797              1.4796109976572005              0.8486787221442816
H              1.8545899439026683              2.20208939559504              0.9097161378421728
H              -0.2238474920906943              -1.0499206516559672              -1.5814553101888433
H              -0.7834645771122423              -1.4127243693767422              -1.9708866022162193
H              4.640904016505102              2.252632478442636              1.5594306290966926
H              4.8889188529959995              2.627386792766563              0.9163822022748649
H              4.146092465120785              4.919406583433218              2.5591136069450453
H              4.416862561331816              4.3433430370676245              3.0331069226921508
H              2.9676459286762795              2.381889991344644              3.627667556890189
H              3.04468767505639              1.9530581191961303              2.9871653895520542
H              3.2481042877945523              4.5746650935519755              0.3543160308000581
H              2.8439367118888237              3.8988157058794095              0.3876703891276372
