72

H              1.4053061661479544              0.7230228551269864              -0.5856387523210376
H              1.231026095936471              0.8854834478031072              0.13156407628809857
H              -1.2498528090975436              -2.554319327734855              -2.055122903125488
H              -1.927699814622018              -2.8793769399138207              -2.19682901864617
H              4.012625343832123              1.3203887320755818              1.5416195145047245
H              4.699101015628082              1.3385930036514146              1.2153676394148183
H              3.8559920746603376              3.6131666618209484              3.344989804640136
H              4.28988567173501              4.0902905078966585              2.9485809714720386
H              1.3806196361102947              1.896274970793386              2.457951355028428
H              1.1417413791152347              2.526790903193729              2.0867610988963787
H              2.7998706474682242              4.008965750133461              0.006734416939024119
H              2.2411158933125526              3.561126117316423              0.22401110695225024
H              1.2587443762779449              0.4699945804427965              -0.5465519941421202
H              1.1725672465595438              1.0264239071870027              0.11582665538224331
H              -1.0849391683562448              -2.2597416828781967              -2.1622492369820887
H              -1.6987540384487487              -2.900959370169051              -2.303885338860158
H              3.808112814086671              1.339414544895692              1.449108222155157
H              4.5408790374857135              1.3872719818186021              1.0745775269022242
H              3.788695233214222              3.4575337089761997              3.23288278872334
H              3.9875382837046116              4.110087900945231              2.9972463666540974
H              1.6364872582482572              2.1805049214297276              2.414725506205008
H              0.7962512905701923              2.4421994292572293              2.4346657905254543
H              2.8066044974956394              3.5851741734074407              -0.14328380938848034
H              2.2058515549308204              3.606501259547748              0.17059646922273142
H              0.773125883524876              0.5686042973764839              -0.3809108084131835
H              1.2595637881976407              0.8360713510735605              0.05473111998781216
H              -0.9989432776968766              -2.498326557079481              -2.167440460010871
H              -1.568569606215268              -2.89980866647807              -2.517677932342886
H              4.009500013416129              1.3863193172307833              1.75763362804135
H              4.517486860949451              1.5210911649638619              1.2003842447686492
H              3.724176600583421              3.73117500688144              3.2257257779917627
H              4.221635822042787              4.089806616520064              2.7988665501115344
H              1.785832372003205              2.2246610447165485              2.3263063318803483
H              1.0738170534850802              2.38825797786371              2.5184996636411725
H              2.9478730036248026              3.2888593690896535              -0.0034522372144259357
H              2.3771659372839204              3.6497386666976825              0.20786492464253614
H              0.4887090481316252              0.5702431987562171              -0.4943418490965972
H              0.9321244039166865              1.1047908461903477              -0.20064617501616389
H              -0.8728727663159351              -2.6564093733425134              -2.389277528952939
H              -1.5791703212718804              -2.8049277585879087              -2.448984327458075
H              4.043668684128307              1.2618727813301749              1.5819051337744519
H              4.37880213919406              1.59586957979969              1.015048117104248
H              3.7047898194091045              3.7127396627466016              3.393835041916791
H              4.000322025657679              3.981886793671376              2.762310157746973
H              1.7919271178920844              2.2978419444267737              2.4802600876620424
H              1.118967472797545              2.455443279403366              2.180314617395083
H              2.7719195333653164              3.7290955861750787              -0.17119399021192472
H              2.5562910557644845              3.4824688561429245              0.5029774137544509
H              1.0595190860848867              0.6132272276952929              -0.3433253169386169
H              1.0140235417257533              1.330893711776331              -0.07450693314848258
H              -0.7532360755436328              -2.6285032384114615              -2.110370705315324
H              -1.4791785320749207              -2.802930410658732              -2.2085984727704298
H              3.774345327538007              1.4233915463546905              1.506729993950699
H              4.265026283599417              1.1559297320098056              1.0570662756679197
H              4.020679624829468              3.618411502527962              3.4312604139164558
H              4.461866840943778              3.8090787086190168              2.7880399035746017
H              1.7758630850992516              2.2620859351596243              2.331331563478682
H              1.102836243712357              2.4214625574954836              2.301780840946685
H              2.897086368990978              3.8949071992310174              0.3330067445096779
H              2.2238845881620706              3.74797798195926              0.5465572166611836
H              1.1716213163819396              0.8849968482137711              -0.48466812260636294
H              1.140889399664388              1.052345195699755              0.23073782243948296
H              -1.0592131603615311              -2.623758963995919              -1.6616679572742488
H              -1.6135951845870746              -2.7260662817702737              -2.0629400083932783
H              3.8979966398617147              1.029799296909402              1.5374996650677937
H              4.474169977557507              1.5157243145044328              1.3174521574380211
H              4.2282840473494865              3.694338871621244              3.5393095553814287
H              4.4761007078179              3.767678657186781              2.8113365995908883
H              1.3162164995309422              1.9740184833173784              2.6150721622430657
H              0.7474478469823981              2.364273875822502              2.407891016174148
H              2.8158012879748084              3.9457795486409406              0.3770623295496055
H              2.171825137599092              3.5661833112417636              0.2198762751405356
