72

H              0.8341785555880679              0.974095819179724              -0.4791282566521075
H              1.519101339067025              1.1413897733565077              -0.22371700146428056
H              -1.5560761348428633              -1.4375960112835904              -2.2786656953202824
H              -1.8137584257162542              -1.615963888429353              -1.6535375424454017
H              3.6770265169054146              1.4435399380792666              0.813421246847504
H              3.986379224352495              1.764087965756826              1.4614378737611664
H              4.241966839186119              4.246733226251989              2.6942424086355103
H              3.6739703112147986              3.8914169011243804              2.9769924018193423
H              1.2527982649274578              2.2233015455058025              2.724252348887561
H              1.6569850987310086              2.1117915631413937              2.160747392441053
H              2.085284600384498              4.005596937565674              0.34033029093420863
H              1.6471840512977094              3.8655247660340466              0.8835398518573467
H              0.8711115863141177              0.8801766448747411              -0.3353772740134652
H              1.490614266197544              1.361030906012003              -0.41890994520338004
H              -1.48552761374735              -1.5672452111097734              -2.4329443177618577
H              -1.6077968304255594              -1.4451721567070688              -1.6511824642663973
H              3.9647621542921314              1.2923224421052117              0.9212435216172042
H              4.359297288563458              1.923251562181821              0.8592055861500836
H              4.0969250141085505              4.5803577620102685              2.4137025688946876
H              3.8016230176113512              4.095742816666434              2.9173678429356857
H              1.273820135881285              2.2879669465367183              2.7423409626636275
H              1.8383392926465605              1.8809570304756111              2.549608964886592
H              2.297774414054237              3.898970485197558              0.17427265424425625
H              1.7071385698812211              4.029303317686788              0.547540028683257
H              0.8025510696555994              0.6743731963269108              -0.4735180095575155
H              1.3731112931305434              1.1498746086114104              -0.38636002522145935
H              -1.5210360586253613              -1.5656949595348333              -2.6168491893095798
H              -1.6892980973027854              -1.5795872214916802              -1.8641004156422856
H              3.7956170882339735              1.2770716807016116              0.6062389856909953
H              4.2258339133681675              1.8797597414116545              0.8698777500415089
H              3.9386052404174534              4.5074343569066375              2.6369806527968387
H              3.5517613873571827              4.037079255927998              3.027344533559645
H              1.2511390165396226              2.3998457397362487              2.6031801414443785
H              1.8685449056904517              1.9791092029656987              2.8485212452457023
H              2.3725182125698185              3.885891991559131              0.04709092661053988
H              1.8104108453642704              4.070591076188046              0.48041288263951093
H              0.8428590185065757              0.5870435853529399              -0.5575841619992589
H              1.2540910175777176              0.9156545974960187              -0.06234457797270197
H              -1.4134107600375254              -1.651240734264622              -2.528919154926682
H              -1.3396589541289836              -1.8768743704938842              -1.8524815125459104
H              3.8286225842513635              1.2712440985142694              0.939298864908354
H              4.324489928206698              1.89288859682241              1.1085142234537844
H              4.083937608332088              4.446519707875132              2.550124299721317
H              3.646286308795305              4.0239552126434734              2.9718111453995357
H              1.0427449140241862              2.194079789630218              2.7814724385637972
H              1.7181567034338308              2.1088459500241257              2.68414217027537
H              2.3223749218744              4.132003718032101              0.40407510292231397
H              1.6523921863286517              4.129022449602684              0.7755604252879704
H              1.0632723338164978              0.6198320959277429              -0.597287482387217
H              1.2082494459141218              0.9271749532415473              0.036564478599810615
H              -1.6071616223227685              -1.313518633458923              -2.2556705325968878
H              -1.5479075659798145              -2.0247828486432424              -1.8688371304644864
H              3.6359568188703237              1.3063077124246798              1.0676528110285535
H              3.9866767081958656              2.0078279043372196              0.9719119547808946
H              4.113036789193411              4.484058114236017              2.3506296134237035
H              3.9147881724340436              4.11847677277946              2.9839849584650477
H              1.4168439942943496              2.270740427053605              3.076922107724487
H              1.6431494525272636              1.9000545743672197              2.475807592654379
H              2.3122808448890138              3.943555975654489              0.7049505991404547
H              1.5650462006790997              4.129787180271963              0.8359223367181978
H              1.058975315344467              0.9697566569892487              -0.5688426366027644
H              1.1977191503526132              0.7222512738666278              0.09019741803740418
H              -1.7473838229177163              -1.3962461446721028              -2.357576522742483
H              -1.9008861122618654              -1.8361291071248274              -1.6375199294354
H              3.5040755983461707              1.4315773718730413              0.8375254062945855
H              4.056336273728428              1.980428602145828              0.9870925031690622
H              4.068139731163425              4.526384520880902              2.5507631540141067
H              3.983188994770833              3.82255651980113              2.7927465013002792
H              1.5316705750322146              2.0683145761461605              2.81496696131606
H              1.6991125146427017              2.1661018228987774              2.044357282907025
H              2.312826269186626              4.225529726680005              0.7302758401062039
H              1.6155190614464567              4.380811290903328              0.9705192276681247
