72

H              0.7037010980623774              0.9969183601357451              -0.41424892380227013
H              1.2311518972227085              0.9088917942286463              -0.8932206947205795
H              -0.9789440202974371              -2.4228214935716768              -2.2997245637385157
H              -1.751287909920059              -2.6320549001129794              -2.2665470467445585
H              3.663730714602937              1.1504819111869882              1.4076586248519507
H              4.123363385709489              1.4305629478128412              0.9299291871471274
H              3.5928910566900623              3.891121753598564              3.142003390219038
H              4.251918635840058              4.144156265019757              2.8182305085272823
H              1.9916905795799238              2.284107453687448              2.725054615321511
H              1.436445865768772              2.2988454019076254              2.3033025952154946
H              2.8096783510411307              3.5764692570177528              -0.06098432847751827
H              2.1800728504231723              3.7840110423878808              0.28760580317134227
H              0.9337350347639073              0.7521983424744725              -0.5173177931855338
H              1.5799496945455196              1.0399795613796319              -0.6535644236701033
H              -1.0191998016804336              -2.598254567209672              -2.2543483980942662
H              -1.7549143253482309              -2.702547908514783              -2.0288022785055118
H              3.807581266869735              1.0234303509919833              1.4646540383727196
H              4.44366387022321              1.3332664844783522              1.1272118582715023
H              3.7549771414564237              3.741215723839706              3.1433270906153483
H              4.402096775387906              4.000720946233761              3.01858081568727
H              1.6927929615952357              2.0324875355491727              2.2933600229518145
H              1.1753661405960159              2.4439861522850155              2.4724818435838873
H              2.629358212539861              4.230595846439092              0.1306265135479405
H              2.199628325017555              3.8873293473696644              0.5752715801339564
H              1.2743709488437416              1.018178556451409              -0.7880087942537218
H              1.4578654625169962              0.9866606177238005              -0.07734961449618404
H              -1.1285421495545738              -2.300591526160529              -1.9688533527593022
H              -1.7139343534697493              -2.7404028550744135              -1.8734449887903109
H              3.9149261904491297              0.762418114751893              1.4258677302026561
H              4.362269089218125              1.3262198381124344              1.2524595707231825
H              3.975007759304189              3.5589461456724396              3.271956208370559
H              4.399070985387366              4.185398602570826              3.013175004526425
H              1.2378680507532764              2.054895523541042              2.894613903872629
H              1.2708770925175314              2.3543958879804454              2.239931947976815
H              2.4563202597063394              4.139512204731102              0.3157975420683993
H              1.9792127069504997              3.618177427105031              0.12955337219292057
H              1.5115611828242064              0.7139741478946438              -0.7620446994714424
H              1.534606313590889              0.9969743646414987              -0.047939203496124475
H              -1.2541239682543637              -2.3684485761481997              -2.0025524930023217
H              -2.0406072330570315              -2.479580377652357              -1.9496700370833289
H              3.8281201439950836              1.1386902174310287              1.3394217608466195
H              4.439210899987918              1.3658757123412448              1.001886180040185
H              3.8251653658982874              3.926174872939857              3.1277297394130374
H              4.496761865089363              4.13580287504396              2.9084235954775077
H              1.693767513742547              1.928290773653512              2.708068644257982
H              1.4134236516684535              2.4318923985566316              2.133629600390928
H              2.734470836581918              4.033177626641762              0.260201753957867
H              2.091962302366831              3.8642256129955435              -0.09518443313692498
H              1.2335586426119807              0.6231372421117656              -0.8054232967206894
H              1.4462284925632005              0.9319060247852705              -0.11121340012688442
H              -1.2032526890842594              -2.3825544329661215              -2.1804798481755703
H              -1.9323985103502155              -2.51433006501808              -2.1840428730800765
H              3.913444649073861              1.0035153631009077              1.277396407145397
H              4.5813243174003295              1.3792301967387302              1.2154513010996104
H              3.6699417906641947              3.5615494399858654              3.0274458359554193
H              3.9606872630187198              4.203692061833668              3.300984612415132
H              1.380225471662908              2.061674077774523              2.846766690691212
H              1.208423109806127              2.3852091918678457              2.2034669144553045
H              2.678826348028805              3.7543959040618815              -0.4051529479460424
H              2.2095120935336694              3.736749957680483              0.11915718257403629
H              0.9307777874943163              0.6712411471855162              -0.4785226100261326
H              1.681979070362588              0.6241158779410747              -0.4502242777434644
H              -0.8861606982233982              -2.4359348780728              -2.317448401142682
H              -1.5837734705446176              -2.6780936907555453              -2.2280689446125765
H              4.033938061518927              0.9997725734675182              1.6138327004664734
H              4.508607287052805              1.4177297488323706              1.1699983296587126
H              3.622068023252004              3.6711683519296954              2.933660935440147
H              4.020730849732224              4.315691695250975              2.979614662083502
H              1.8087668350110357              2.34446063459796              2.8310906946425587
H              1.398822145790477              2.330891398684936              2.1095892512214895
H              2.7325604570285758              3.606840644846927              -0.21322877825108097
H              2.1555952559044105              3.7704269863950306              0.22958666610986297
