72

H              2.112972646326728              1.5224601526084385              1.028134446344286
H              1.8274868874121792              2.2233084933120337              1.0509455652104749
H              -0.3378803944587511              -1.178462411386259              -1.635531314132064
H              -1.0392814120987448              -1.1981396067705288              -1.6632568946006905
H              4.7324256176130275              2.182276297063143              1.1379171271317845
H              5.056382768083487              2.8826955455624184              1.1965364839377428
H              4.489460740279001              4.969551906682574              2.4982891644942984
H              4.5608931584792245              4.7380390992151815              3.1741737631870874
H              2.479314564178321              2.001109042112359              3.7505792032578547
H              2.8348851504014023              2.4709437677953514              3.325360167796386
H              3.061037301037474              4.4055686793939115              0.3872188361362737
H              2.804522759469187              3.820406635191111              0.7176592841324307
H              2.448302212411877              1.6490451656556937              1.0533674438307936
H              1.744135824548061              1.6452318542107793              0.784830754889128
H              -0.4950362616711878              -1.0652698209669171              -1.9023134364857484
H              -1.0757230936262272              -1.5708990842806625              -1.9082524981263411
H              4.855692681355519              2.207968736540314              1.2191533032799693
H              5.001428423851763              2.783074916525312              0.9380521986539667
H              4.261632244702368              5.082449436429962              2.521511255556823
H              4.015510376658549              4.615930529705839              2.9992394488801786
H              2.488614123853221              2.186471437637974              4.011972906792334
H              2.6662978485515847              2.2820800392458014              3.386668285486572
H              2.8113663330339054              4.15429507332625              0.016111066214152592
H              2.922348219136723              3.856882805189617              0.702316038013556
H              2.4831441583860197              1.465053681762589              1.042078130719297
H              1.9000176427906728              1.6533629169166244              0.7159029855578972
H              -0.16536885029400575              -0.9525851485715643              -2.132329492880713
H              -0.7131493266086899              -1.477594207851147              -2.191917066772671
H              4.858839375165065              2.2122759042509723              1.531727947715162
H              5.268626345688944              2.801785300604111              1.2736290587080958
H              4.056535987656416              5.127276759984793              2.4186591837619273
H              4.170013981649217              4.554939707620214              2.885966014486142
H              2.4161719341085877              2.219307321567719              3.6642540645732375
H              2.9948711936093666              2.085859011477196              3.375354056794571
H              2.5937594466200524              4.220229643545978              0.4067765024499984
H              2.7976002223611287              3.5269002889789305              0.49231523186576787
H              2.353507287754726              1.3372489487644361              1.1343126812009106
H              1.9836765407396213              1.9617969057343938              1.0471821196723479
H              0.07518461325223298              -1.0180969662891677              -1.8610457296640603
H              -0.4858929221619538              -1.3677880844003907              -2.085912274024575
H              4.5783777204631795              2.2553608808994796              1.0230696164229927
H              5.004574359853031              2.891558268031825              1.1099940371817538
H              3.9953111538819677              4.6682768296286055              2.5348143620611183
H              4.494784459622865              4.679652327658437              3.1005587717540637
H              2.7655506831178522              2.236147416958443              3.448582762668518
H              3.337442944187248              2.061388291447159              3.0899698832004123
H              2.8297808143186596              4.526198649361898              0.4279409654889368
H              2.573044244735446              3.885522209964221              0.2891548644022784
H              2.2733731303556013              1.7456505342082442              0.8887366602673242
H              1.7424680553005363              2.0855014429492273              1.2103038407223974
H              -0.011369166533215992              -1.2920774921956495              -1.7071658557736265
H              -0.739008356005194              -1.2398222046424214              -2.1592077911403442
H              4.710726917331704              1.9469975042396663              1.0473746356308513
H              5.0596413444840955              2.6006030684563197              1.353459308057339
H              4.076566739807137              4.858200844199573              2.6493278423899427
H              4.3972509465188825              4.443743710174035              3.156452289866406
H              2.792575088814047              1.9992356927477444              3.562188974821764
H              3.0990247213851103              1.4770773025506414              3.22709665880499
H              2.855844275104865              4.527959420479038              0.2799310142889041
H              2.978067715421569              3.786721266680161              0.34163681763909703
H              2.2902740183060373              1.5897462055803928              1.1090207801587169
H              1.9672349413025705              2.264930949993782              0.9068997279011727
H              -0.01670866967355638              -1.304055828074399              -1.7220938300675155
H              -0.7621655866113667              -1.3161771506145123              -1.8793215180316485
H              4.947852481862346              1.9923364124506022              1.3996496534711942
H              4.999561225278359              2.7014936118325967              1.4159335016618733
H              4.642623143219575              4.778162959445848              2.5946218639598415
H              4.432005473469844              4.473790186527307              3.247218833495827
H              2.434522686540202              2.0853773689398647              3.726074205845598
H              2.924855079035264              1.7837012599825524              3.3218691398855293
H              3.118481211194857              4.5247990487764245              0.29770028888000577
H              2.9338291645230514              3.7499596560922464              0.3929358484493257
