72

H              2.4977234197850327              1.4577801785599707              0.6867270285285603
H              1.8322763120614143              1.6301834591620428              0.6550368311761736
H              -0.013680753467830221              -0.4247412043550239              -2.015366537824878
H              0.3681756925421796              0.26243475260343957              -2.368241820961278
H              4.941932491976186              2.228695095846751              1.3585799881075067
H              4.78900209116854              2.6609806221437733              0.7893891044869328
H              4.445251572957963              4.5765642394184605              2.9537133868532197
H              3.8616808025473284              4.2505908299861055              3.347945345821109
H              3.1151163336684697              1.6029069227850612              3.2987356622627373
H              3.2020756290494767              2.235698100758565              2.8727880624706086
H              3.1287346408757237              4.581601791088668              0.08242685218195833
H              2.6672096936605656              4.322515039062687              0.6714446458103559
H              2.3030637362524873              1.7958610966355266              0.5046042973098346
H              2.122935795494274              1.8136259238501036              1.2494532721516778
H              -0.18652839983063954              -0.28181318274586364              -1.7421083393712913
H              0.16513701295004804              0.060710680781436745              -2.354952016311406
H              5.491456358391822              2.318204745363293              1.0846199627287385
H              4.980272280542296              2.5097508336468124              0.6266140997671661
H              4.509741348283351              4.69275180688432              2.934176643810508
H              4.13607012715514              4.065930313768929              3.06908142825585
H              3.069938086649598              1.7945700705107102              3.4217608137371203
H              3.193648807993809              2.1053836343288648              2.7005623738697198
H              3.2068520843157704              4.431618593459505              0.22013000888918377
H              2.5987480427853034              4.532679117066747              0.6706122536595855
H              2.410247138800872              1.820981725550462              0.4861280159573956
H              1.9166949590156033              2.0319544878977736              0.9282151694431979
H              -0.47999841729335296              -0.10091704721667656              -1.7526809802095669
H              -0.09836904805801498              0.19443255239523036              -2.278055868262304
H              5.102329911407316              2.1977354803450373              0.9617233035815328
H              4.84249636744508              2.397181448060932              0.32747633813004234
H              4.119482143484781              4.50017759950748              2.996919422428461
H              4.097551095867044              3.839581852375508              3.367830431556876
H              2.9226226906014405              1.812079444557517              3.3615374399158275
H              3.5293250302364956              1.8864581807549792              3.104269998324681
H              2.8520383758298022              4.28365182148307              0.0041347706068993765
H              2.5308095103123787              4.377017279462869              0.6933015356079401
H              2.295488346605248              1.818695481567942              0.5153210107520988
H              1.7919239523908232              2.3088591585444966              0.8547132055873418
H              -0.11364082882169194              -0.1501243077544476              -1.6444671371466473
H              -0.046130736263015205              0.27719605954084214              -2.220451647233487
H              4.930822066159484              2.229133274495404              1.2558140554253625
H              4.633072805340393              2.2657211621827584              0.635165668263164
H              4.234843049461386              4.503282620354663              3.155015649291842
H              4.059032301978445              3.798403240820021              2.937897839937619
H              3.2788597807291158              1.2176625413933115              3.4975255749169496
H              3.1733717549545926              1.931243095002596              3.3604939253365087
H              2.7736041212046327              4.330727695857269              0.14079799630849377
H              2.709259857340516              4.728019808357971              0.7449629345991317
H              2.155294463703089              1.930891141680252              0.45632539188312343
H              1.670137813828445              1.817127375975962              0.9709809990123692
H              -0.06782011707812602              -0.15096660739557016              -1.7995603176613522
H              0.04542183561281703              0.5236165047674977              -2.1792384403396308
H              5.156857080760311              2.314719792121499              1.1236271637438613
H              4.477259385130502              2.3806845429019763              0.9114053757207291
H              4.178894744326679              4.78853378681365              3.0469948957732296
H              3.992672990624368              4.0382243928066135              2.9052484606292475
H              3.229648939357382              1.431221877132502              3.1423843443279145
H              3.471712759659706              2.180171372505805              3.177247039384324
H              3.0322185213629913              4.24687659890053              0.16543187845243712
H              2.789799295899253              4.759016904198332              0.6495271720864823
H              2.263799849367068              2.11454552048836              0.36678184022924143
H              1.6705743935415813              1.8361486091374062              0.6646974444769032
H              -0.1083210675844769              -0.2773647955612637              -2.2740034573327392
H              0.1455431674360514              0.36542795335386224              -2.230840606965561
H              5.211816128938561              2.535964935410451              1.1253395577097365
H              4.665162162240015              2.344270473446464              0.6250845340589791
H              4.023572387131007              4.874747505921421              2.8593835600172928
H              4.0386701136492595              4.207737609217894              3.1189966522777905
H              3.1817838405882104              1.4394524260819275              3.2107453228140845
H              3.467625946377423              2.17241582779796              2.9812720601448763
H              3.266853260700748              4.299997384356568              0.17242570237340607
H              2.7382878188341566              4.629116886633035              0.6287425526245164
