72

H              2.349538058525021              1.2505970073085537              0.5491367206471904
H              1.9705534735595756              1.8091129953453666              0.8034921566072254
H              -1.316450825762722              -1.3537781926277166              -1.6740172960149142
H              -1.2577374532099976              -1.680705754630814              -2.2690341290667604
H              5.040285713466127              2.5130974484196535              1.2490676750469103
H              4.884696666769942              2.4482083824698266              0.5646927322264703
H              4.71498597378679              4.5990324221426295              2.939822073171419
H              4.5636590343054495              3.8696439201426553              2.9773136284541395
H              3.407602270820472              1.9764267176050503              3.5102882868422576
H              2.8578104226376055              2.4078477430379928              3.346297871891652
H              3.1984192729524765              4.626366374632135              0.6516350974545381
H              2.5756604493544653              4.662550803408193              0.26527263799815376
H              2.5342765999854833              1.5251721262389932              0.7894642397662579
H              1.8456267247468916              1.7088940022243484              0.697687002453444
H              -1.7477730156760556              -1.4768178722242538              -1.9060799069544923
H              -1.4354554240056212              -1.7223367330189348              -2.580797999379535
H              5.240254701337311              2.397729044228977              1.2151612137359857
H              5.052159944923818              2.4933070146710428              0.5190423369853737
H              4.429753302887589              4.762606163107292              2.942331032390192
H              4.4734742656352795              4.040120770023024              2.9080673705623252
H              3.0273584040044392              1.596909669919569              3.6324992111221692
H              2.7570882494493465              2.265248753121659              3.6633306797965317
H              2.958790631235732              4.651847245679588              0.6939445377507606
H              2.6302297978331546              4.236072086387393              0.1995847959553254
H              2.6331066075520537              1.542148482146616              0.71755797099965
H              1.9428696040905733              1.387992787754612              0.7682194223151362
H              -1.5637997634473342              -1.1868172976848133              -2.1535574011819407
H              -1.129279480854678              -1.7273229497439775              -2.609027620823286
H              5.251400295866515              2.2936006776989837              1.191595682468943
H              5.106214095434186              2.6345380747257865              0.615104733710156
H              4.492295862520205              4.79960864872828              3.011782101377551
H              4.5437470997776845              4.025670622443409              3.024537725677414
H              2.9205289763995337              1.5486003484402941              3.633208792653092
H              3.0753777607780837              2.4114238868815145              3.624718779398808
H              3.0004762823545157              4.236631909031732              0.7018648188975819
H              2.3501816016245765              4.117801952240553              0.32915221524087235
H              2.2641992666606656              1.4657324733798673              0.6804384654925316
H              1.7797511428200037              1.9022118136413992              1.077983183816981
H              -1.2676939109365217              -1.133873917451557              -1.8215828684023174
H              -1.1396817943799222              -1.2654395821630664              -2.530197778073426
H              4.689844551243446              2.5488557332283497              0.9936577747137106
H              5.082162098597237              2.4524484531511983              0.4168552055556918
H              4.363256097811578              4.825905462409384              2.896295604901882
H              4.815982924611139              4.294256197128593              3.091109681257389
H              3.401460353875821              1.5243154425505727              3.6695903534378385
H              3.3659147076043667              2.213392609515521              3.2945331058931906
H              2.904129324774218              4.4311509558097395              1.1223033841985097
H              2.712638004192802              4.395215697433436              0.3739871866933811
H              2.251480405299144              1.3704405779260627              0.6898398364359244
H              1.741321585879523              1.8431020287757112              0.7045043151526718
H              -1.2565398894712982              -1.3258510962926089              -1.7033925250774857
H              -1.1565608893983417              -1.2580097184606793              -2.445099386834741
H              4.893006069791809              2.134591225727608              1.0498642318836593
H              4.771356583607374              2.1582401704053535              0.3656962809251951
H              4.198810428583263              4.665703817165748              2.8263171273505177
H              4.526769513353037              4.155328112651422              3.250843303144546
H              3.7528766774452444              1.7586399156891324              3.767396731329159
H              3.116474648972124              1.80211936543824              3.2100134390074593
H              3.0793685178749217              4.512517096715505              0.9403290245832305
H              3.1236275087103573              4.417528596888085              0.23554107593912169
H              2.3470802898336496              1.679244024159468              0.34035892603809514
H              1.783375925260103              1.9154836668685755              0.7639328001916336
H              -1.1089275138063117              -1.370812461619385              -1.7730458721635267
H              -1.2331950692081366              -1.3856208122898672              -2.462025349272318
H              5.018725686337199              2.086299675639637              1.541334121017383
H              5.2176290631133515              2.290401729657556              0.8797512253245741
H              4.434682887867793              4.662776922619434              2.9442395250668008
H              4.61027884005107              3.9551462310208088              2.748347018011649
H              3.6002618340589407              1.700512024945245              3.646722715594483
H              2.9927793932775244              1.9927252956984602              3.244035319840218
H              3.288487325336089              4.5250226132363265              0.8863201118165966
H              2.873497505505261              4.445288044896443              0.35876853647699347
