72

H              2.5492993361237253              1.4576089515979902              0.6467180649185208
H              1.8408848839275573              1.6613803828357936              0.6636311060489095
H              -0.06473567764922064              -0.4566941933973176              -2.030292964333523
H              0.32413385611774276              0.24198944354831334              -2.366973338147109
H              4.924506799066727              2.2385728130305194              1.389018519782279
H              4.733992759335107              2.635594136341101              0.8155040369047862
H              4.4061773352133              4.5800470518895695              2.948438640604164
H              3.847888875433282              4.237453273557266              3.397561113470316
H              3.0541294814229403              1.6193571158225064              3.311401142334797
H              3.1958456020184927              2.2697699852006146              2.8393974225146796
H              3.1717822029517335              4.565506075496128              0.05625952141185775
H              2.656182386920888              4.300041800880714              0.6106582230251234
H              2.3153881081829986              1.8095068162085488              0.4588856054697706
H              2.1053958970537994              1.7977806471481              1.2404860871458014
H              -0.19406437804868226              -0.2664493577408251              -1.7922636556831946
H              0.11353600962240212              0.04295400747514773              -2.340387837411217
H              5.483238717583655              2.315473650875948              1.0720717524361807
H              4.992852575936274              2.491234784271679              0.6062505185640847
H              4.484487939467246              4.7503151597711595              2.929757404793597
H              4.1651481188068935              4.085274224955485              3.0474408148033394
H              3.016405678670136              1.7969989486220028              3.433146765245455
H              3.201937563297311              2.051763732230678              2.732120934714219
H              3.1645609249291655              4.462290326853819              0.2313136902650709
H              2.5920422507463585              4.542000552950288              0.6823038932748161
H              2.404839215508414              1.8431441853637465              0.45164721506625694
H              1.9232791655858672              2.0272600431562524              0.9194820918331417
H              -0.4882047384207148              -0.08899120173156073              -1.7704434828119902
H              -0.13277774920092375              0.19432886605806604              -2.2672022447190177
H              5.096454540931859              2.161418118777919              0.9024537937812117
H              4.804337307594172              2.426478881130387              0.3151775602852832
H              4.108728419207918              4.516823623883562              3.001390471528206
H              4.101307190244164              3.880378507782663              3.3532871851782478
H              2.9029906408999393              1.8126768419880561              3.3897663301212884
H              3.5486248166660754              1.890077245778868              3.095497969474897
H              2.807854163587059              4.30794442593337              0.003905006639015064
H              2.514576588203354              4.413449390830387              0.6784572738686522
H              2.2891894519814024              1.829718043767906              0.5021616516448558
H              1.8163110892977226              2.2811933636959454              0.8278342841527072
H              -0.14941318448783553              -0.15618291414034471              -1.650669274980828
H              -0.0400996915362765              0.29341662652211686              -2.3043729918297258
H              4.936352271783559              2.2206790478315614              1.3264790228106185
H              4.581422417083099              2.2966416369040377              0.628261134495381
H              4.247430815123585              4.480235272901527              3.1269439837855155
H              4.029463140524504              3.8344223724303057              2.9676612312228787
H              3.287801299823483              1.1734425141009739              3.455582248805631
H              3.1659710094737528              1.9195531067431801              3.382108489208129
H              2.7973453477375534              4.306692200370351              0.13832964974015996
H              2.6675215350458044              4.747055056958776              0.7160352358320166
H              2.1370128190367215              1.9590633061589946              0.4448356472739974
H              1.7198347316713452              1.781704401997423              1.001618575380538
H              -0.02351219188392103              -0.08912253498754596              -1.798414905938657
H              0.08142009288378586              0.5267898281224406              -2.1567231453195337
H              5.107635095841774              2.331054984099895              1.069830190598326
H              4.491442817359296              2.3937287352340815              0.8713082309823107
H              4.211021868156761              4.736647082522868              3.0394080074112924
H              4.000997428392105              4.039257291492347              2.8961585154446983
H              3.2457773758578083              1.4011490336443646              3.176386448304015
H              3.4429082061217966              2.149749782657622              3.187236313471726
H              3.0159602827476117              4.257671021432307              0.15195500230006345
H              2.8102193350706557              4.688843573905234              0.6950137779221991
H              2.2625293242673914              2.096624953276673              0.42366322568652287
H              1.6083249197284697              1.8774343693912885              0.6763717851132355
H              -0.1528849512734178              -0.25332432820008643              -2.217118758619971
H              0.17069284172811086              0.36081218374667207              -2.19994211917797
H              5.197610485129753              2.5089531373516296              1.1317386387739143
H              4.683366699521037              2.3564923640166247              0.5656300277554015
H              4.0552567880716035              4.832734054839181              2.85467298499012
H              4.037880275884938              4.204444280826575              3.1849014187003846
H              3.219080659389439              1.5084052462090334              3.176169164447794
H              3.460170651390135              2.1567581337889723              3.0173526488239117
H              3.257324178458755              4.333916559473698              0.12458093476453644
H              2.75928170415921              4.62080209058061              0.6567050356772773
