72

H              2.662574611292573              1.7097833800548687              0.7316889952335291
H              1.9094681792165542              1.8303212735519538              0.6988280574863069
H              -1.6126341660685297              -1.4561852849837509              -2.0754572867833523
H              -1.1348660087660283              -1.5751936739032049              -2.7330734496877547
H              5.097100814183844              2.1120839640732427              1.139601564690054
H              4.893935397657656              2.4084206063348637              0.46972133901619784
H              4.1633267878198605              4.718318227456401              3.0750910164017693
H              4.592139989774805              4.151195623413724              3.02804676521017
H              3.5466188715539744              1.5165912701106432              3.5042751352961194
H              3.0974868919867937              2.048476939268345              3.3995928166607277
H              3.1179374628809695              4.189527338857016              0.9546798620717882
H              2.5382272419913194              4.288049581592328              0.49917881943951636
H              2.707645209032539              1.8048060664576921              0.6293674156031369
H              2.0504945863256663              1.9206190379269465              1.0074501990321167
H              -1.4387507831252164              -1.5058250919541478              -2.0133974240631534
H              -1.1234860256573809              -1.670744315499548              -2.6480654520622346
H              4.830157632977268              2.3475036682307486              1.1682572203392214
H              4.934693431714181              2.489572815145477              0.44670440226670177
H              4.590237407076716              4.540425531826597              3.2528878273154316
H              4.662361603062661              3.828942355437055              2.949104017567596
H              3.4919731004400067              1.4980851444758367              3.2350478879571587
H              3.0867800534333294              2.0649639400495685              3.25263724573754
H              3.2160287074001785              4.372169532077605              0.8124831570552727
H              2.4513641108431687              4.436416892120158              0.6245227905065193
H              2.2970138650705825              1.786703154460527              0.6828367895921056
H              1.8605251645631167              2.177619478930151              1.0952685534353372
H              -1.6735048814818803              -1.5180751256468146              -1.7232723529028153
H              -1.4007804041847445              -1.3737644322297884              -2.4064305476423713
H              4.8888640434148085              2.475081217175449              1.0856559816446194
H              4.644743517450663              2.29576137480252              0.40505434018379205
H              4.62929403066451              4.530322674838131              2.9117739697901146
H              4.8406333544414615              3.8828203968913955              3.2106425927086755
H              3.2091596713714363              1.6474931444061973              3.6397641864270405
H              3.048919850609002              2.2940912324225797              3.306495623198146
H              2.896785398308754              4.567324440079547              1.0401471779239957
H              2.9935319227122648              4.461526315881473              0.32744140311279696
H              2.4773123099399457              1.8682188296488857              0.6259298511365102
H              1.7659044634505374              1.7717608755372032              0.8509524542705097
H              -1.9054753845968042              -1.330373130757736              -1.7612584051685098
H              -1.6434943199863232              -1.3245075058115843              -2.4937765542843846
H              5.135003454578743              2.21828845487401              1.236752861914928
H              4.674849923391973              2.512155390306065              0.570195419876874
H              4.635975515486283              4.645871062138558              2.6871138858806694
H              4.7446900990193654              4.019681421792942              3.0918205235213567
H              3.447419232874628              1.8270408944030903              3.4962492172626773
H              2.9284242600968384              2.0993063910992067              3.9205942582561746
H              2.7716455750490687              4.578168232430315              0.92906706624185
H              3.0023567618216327              4.466178361724697              0.21576424169126102
H              2.3247882128687354              1.6113803415858694              0.43927500114831114
H              1.844847456192138              1.5255640873669434              1.0440356610556298
H              -1.611723458484255              -1.0755304957616694              -1.8898580729609553
H              -1.4082583960922521              -1.3554134773667088              -2.5029205476540235
H              5.0746043373099825              2.5654260266144018              1.3190991189122299
H              4.795682105602534              2.4978738693008453              0.5740472498056531
H              4.448776488104529              4.829630846328824              3.016822456739951
H              4.729573931922843              4.1231045215445485              2.7808755087671932
H              3.5878726323643577              2.0243906330392454              3.5925328654368904
H              2.931855563989143              2.0034900248618124              3.405157392405335
H              2.901496517298388              4.273127915932638              0.9977370591848932
H              2.6424200501814985              4.461891444299123              0.3037248135787222
H              2.343812529773556              1.3428346554561972              1.051655891775338
H              2.0010335922054088              1.7807940316736846              0.6122594914038663
H              -1.4923213657238759              -1.3043755564866935              -1.8773613215468739
H              -1.0481771803802837              -1.5328028482680869              -2.5193002721945517
H              4.981914063218066              2.6069485696678565              0.9297162304632314
H              4.740411694574031              2.324854759220302              0.2949002709440832
H              4.244414302991958              4.77625957540936              3.144494024775818
H              4.646088113511339              4.173822244219291              3.099949084584091
H              3.5452026799864274              1.8546398546783947              3.5276758375499178
H              3.033489719136911              2.3776553825821227              3.505198658124587
H              3.0147877584856864              4.492873643217829              0.9810423329914282
H              2.7848205407268827              4.6203685196687685              0.26028947270386604
