72

H              1.6884734616733774              2.073646491773556              0.3545307362359002
H              1.7713223091021704              1.3637679076044344              0.5314241426373113
H              -0.8616934142841166              -0.1682870995292544              -2.1726121627228343
H              -0.09966287447347252              0.05173495179558774              -2.2791400276972604
H              4.620626276075224              1.9324440626474906              0.6781275780324487
H              4.551476599508481              2.6426967575841376              0.2640749235296651
H              3.7720497803178183              4.404024299326304              2.5765956542840054
H              4.1867505067598145              4.695761043537871              3.203701052533391
H              2.5776387561897387              1.3952473590643444              3.148129006340085
H              2.858990124088225              2.0159218388983366              3.1958776934964983
H              2.8087556485009006              4.555065504154439              0.28927315273844506
H              2.2418688630809736              4.144254181607199              0.7043198715020544
H              2.0028613469967778              1.6844274131635881              0.1712114778822006
H              1.5819554945201764              1.4552123107900783              0.7582652445064552
H              -1.114433667895786              -0.03646838812902413              -2.1150528593860596
H              -0.48318608289112036              -0.2633635678944437              -2.333019701568162
H              4.4190255488838215              1.881491716973075              0.49943281017357033
H              4.699567204078325              2.4854409453626674              0.7957900085349827
H              3.7357858700926463              4.052985501786745              3.0092853441182896
H              4.094966037996472              4.720495210656538              3.1968488616082205
H              2.4829280450222475              1.5011291667175617              2.8996006369582474
H              2.8071728279766144              2.0615040687880657              3.2646135319752183
H              2.57572594552203              4.495671522377005              0.26734736214054033
H              2.1691686639355345              4.0172333226357315              0.6567780941264041
H              1.636899850203235              2.005391881840931              0.2530140107722984
H              2.0457350211853447              1.50047017159471              0.5919614271967665
H              -0.9936156986876199              -0.07884299537365305              -1.9209950182089
H              -0.559075970529722              -0.010512674318481123              -2.379422575746731
H              4.705898879867468              1.798395604870555              0.7277537413687123
H              4.544008394675983              2.4922538995146506              0.3640758113949523
H              4.004513448222576              4.307799538737208              2.5254759477848396
H              3.9939807300770376              4.282272904446553              3.260966211881376
H              2.416143963926498              1.0727761771665623              3.333050081221839
H              2.591148985865523              1.81829132137508              3.370528079898916
H              2.450539420798464              4.362133837180768              0.24029645682625111
H              2.191774650389753              4.194719214012089              0.8896321214189553
H              1.7461332580134485              1.8970130699138033              0.29656587133960244
H              1.5590179610248596              1.4947324251354184              0.817371894997088
H              -1.1160032830187863              0.19154315689926957              -1.7828905476362866
H              -0.4625653501401761              0.21882291603978213              -2.173358275354253
H              4.361381809146763              1.7660420743060643              0.6038671676458985
H              4.318496864657566              2.532092342630212              0.284081418527615
H              3.8952874383579292              4.372533472349452              2.53955821745824
H              4.01940218336198              4.2626777840884715              3.262166428078702
H              2.412647541027129              1.6490096372984577              3.3076933506907453
H              3.116571117317853              1.2744554908625134              3.471410371232255
H              2.3386645429284814              4.358910775357621              0.18936957312266667
H              2.395099701213095              4.5069438254403815              0.931036825451649
H              1.784078666084977              1.8257832715337625              0.2621843932048498
H              1.266503144220289              1.8313726361579654              0.7326434053812968
H              -1.0728365426749424              -0.08080687718055504              -2.142333397422565
H              -0.4140942117658336              0.20686775457587636              -2.2378585042798553
H              4.499183397648928              1.9319460054499453              0.9544740116721265
H              4.415235940653168              2.4915583362330196              0.4383972103781015
H              3.5492246867461033              4.301880303182633              2.6966132641971514
H              3.9566929760450424              4.527066379466638              3.226899296598906
H              2.355720812781783              1.4769480236914434              2.999192823967078
H              3.0616216606942044              1.7326912379938677              3.301104082545386
H              2.7862425008926635              4.266855978259329              0.09566399443601126
H              2.4117531508667485              4.574803519149962              0.6658958280646227
H              1.8968858714514585              1.9271101496458602              0.28538499961973535
H              1.4683050866472838              1.3101546790346204              0.4822794960497718
H              -0.8870249536603614              -0.1335607045298668              -2.357415221886252
H              -0.15301746882967385              0.21245588651184086              -2.4412268839246747
H              4.49511066159274              2.0429958722445543              1.0474386406986393
H              4.434439141466048              2.5470460111571773              0.5407273892065246
H              3.6774605069362214              4.333433362822163              2.6542919978107262
H              3.8327573373781254              4.704755026518854              3.3038781114107785
H              2.685310190783814              1.4159046640630208              2.831740457141154
H              2.6800362071003407              1.9620494259743038              3.307268782957196
H              2.874213082487412              4.2293772348499425              0.15766886217194884
H              2.3471252553051065              4.134731329448335              0.6368578809116257
