72

H              1.7286482812180308              2.1043371626753276              0.2430736916829018
H              1.5319564012542515              1.3915971122393072              0.5236938303834245
H              -1.0813553972323198              -0.2906844112400046              -2.194685274492529
H              -0.2346945918463655              -0.144283573503711              -2.1872653120033934
H              4.348350279740472              1.8807719186752156              0.9253390650381952
H              4.621296394900732              2.4056119577201556              0.5054110982874442
H              3.662127184600008              4.264460703755324              2.6954718378723634
H              4.111326050060046              4.613317539526394              3.218955348634636
H              2.3453840733613296              1.4263437051828576              3.1822619709338062
H              2.7811903903021857              1.8990674256264635              3.380080983033606
H              2.6000923431152736              4.51816663234899              0.32551374547988304
H              2.228454898822027              4.017512406192388              0.7823174644021978
H              1.8435021591938616              1.8388944673789505              0.11186625427317667
H              1.527566984227586              1.3756345285301823              0.6170612397762976
H              -1.25333792890846              -0.1803940365551906              -2.107044985751756
H              -0.5998034672383199              -0.14176650202046542              -2.3419483307196765
H              4.6346954711864115              1.845599391710085              0.6034252912547992
H              4.4500296027064925              2.516200500563425              0.7782125391025074
H              3.5241129004941265              4.266976410052814              2.6814529100171556
H              4.060674135714527              4.756410623727106              2.952522957900241
H              2.2860312636164917              1.4148434804141108              3.083190678280003
H              2.7137183804549365              2.007565221190033              3.3616041855925882
H              2.6207084696253915              4.254255065500593              0.37711581583418374
H              2.038498194315919              4.115504829104059              0.815376910235919
H              1.517385918080283              2.0661051936614863              0.21815453933404086
H              1.7082221881848143              1.337135678437789              0.36187135695649025
H              -1.2914071109670184              -0.026545093816814476              -2.1770416112939968
H              -0.7357348987381688              -0.07589202688684427              -2.5525354090342742
H              4.579103074873441              1.8578627744121599              0.6635811379950379
H              4.504281713446154              2.4750926560190325              0.33499059212867544
H              3.6260445305104194              4.393668954732289              2.5324020851820626
H              4.069786705597185              4.492788833186656              3.0770202831219367
H              2.286867715255276              1.3024237643896954              2.9706594620903397
H              2.8069506023721944              1.7908132729999036              3.282352024705166
H              2.4654283456373283              4.40944785777443              0.3295170547319768
H              2.0172352402723983              4.4644301103380055              0.8353857924117069
H              1.775634691246064              1.685912201046571              0.2921985606644678
H              1.6204966427237686              1.2293936454602408              0.7508504012727348
H              -0.9345957629169995              0.1272717503016736              -1.8376915822391269
H              -0.3963502900667859              0.18342327893244384              -2.3617595547152535
H              4.082609021655939              1.8140043828300414              0.613566334991204
H              4.242278121156921              2.5883000847430653              0.5970644212119209
H              3.9365850996123464              4.167660823134769              2.5680205921702726
H              3.9171021160779516              4.334666280607112              3.27168374707029
H              2.1974957704015123              1.5767547068189973              3.030633780533845
H              3.0221804503491803              1.4645905134327413              3.1763612965358288
H              2.2215348000621886              4.4218849562702145              0.2278629864390079
H              2.4356309282867077              4.287906996454785              0.922469388549236
H              1.6330303983280992              1.6524840323693206              0.3507024856298744
H              1.3830597387536772              1.58335086876805              1.0312323397348524
H              -0.9668215889828173              0.03854092247869735              -1.9938245334993658
H              -0.2434861114854077              0.1881540195546452              -2.219188553930846
H              4.803198363364687              1.9297858853612813              0.728944694186
H              4.620286449881435              2.5148799909101305              0.45479910740620355
H              3.852297033018215              4.230011713100888              2.5771886363230805
H              3.9998168221859753              4.520162132391214              3.1800031336548575
H              2.487876879073597              1.2987996739864354              2.825314789756894
H              2.8483589361639337              1.9235036693671372              3.1920417750809134
H              2.746952991874568              4.155691754361465              0.2638064870023242
H              2.4435818476267643              4.574934738787888              0.7494063248688048
H              1.7537197202236554              2.0092471889934127              0.27449157202154667
H              1.4754164208148928              1.3746945509933672              0.6011931096869454
H              -1.0204640932890794              -0.061055085499334194              -2.362497100416812
H              -0.3027917762041735              0.09707652480873864              -2.1114782778166545
H              4.451874816531711              1.919078573897985              0.6885945680984923
H              4.603353338365061              2.4461470995782637              0.25124256831385117
H              3.5665694309302314              4.061458034686629              2.954491259872315
H              3.900090156267749              4.644298806712134              3.2690189140995654
H              2.6165546727429647              1.6225300542306345              2.7427848549025393
H              2.6266330801814535              2.00397496075492              3.3899228266725276
H              2.792551180390142              4.165318932767199              0.13435265521533385
H              2.239303734459525              3.9734242164159155              0.5437664284401009
