72

H              2.337421226572459              1.5945305442382947              0.5491440455768807
H              1.643786534102728              1.7152945160041775              0.8403419657704926
H              -1.232300943795134              -1.292713110908235              -1.6959610460668377
H              -1.487365985278988              -1.4594619228917984              -2.3660150513685263
H              5.201423128155009              2.167243848564426              1.501744678356302
H              5.179049954289843              2.52362474342445              0.7789272138427409
H              4.62731571583866              4.752641483389805              2.824180553199344
H              4.434292799085369              4.044674843805155              2.8292659460965575
H              3.041701661457538              1.6273998874686906              3.8323354029416943
H              2.719546959421712              2.1383043149915584              3.571054701118199
H              3.0648409264061476              4.701722856699193              0.6947514216425076
H              3.015657663519504              4.162968346376977              0.1761267506609726
H              2.237059471912662              1.0963487492903645              0.5014480073889421
H              1.709649044901765              1.5361681645459153              0.7687816090006243
H              -1.1550292131513653              -0.918722028782371              -1.7468925787820002
H              -1.2072801352886284              -1.4986789646311303              -2.2521586283260513
H              5.225498506291821              2.4493006144507987              1.4802819721464455
H              5.109480066076121              2.575948965268039              0.7034056170225998
H              4.5232086118092845              4.904090935331364              2.711042569252381
H              4.580934485332373              4.177342675244851              2.910441166947151
H              3.069925204316314              1.999297968437824              3.884760694279567
H              3.0018292255354067              2.516969761974225              3.480728840717475
H              3.077163884623763              4.41203905514357              0.7500934158163005
H              2.5891949321072967              4.3725840772310995              0.16355055950435327
H              2.3384079178924013              1.0606797255973113              0.8338208301008356
H              1.7737864636188267              1.5987097052265706              0.6176426179584467
H              -1.1415902627143775              -1.0807760944780493              -1.8287379419429886
H              -1.1308536243908196              -1.5859075151385817              -2.5012394780655227
H              4.889015758188131              2.5708446790496686              1.1884270694974386
H              5.214347195081964              2.4303958385754005              0.48930562359326013
H              4.139811496370958              5.002430840954268              2.8340635670028655
H              4.433134473797349              4.295600364968457              2.852928684842944
H              3.466449488016033              1.6533132654642089              3.6975824115879083
H              3.019537459656251              2.1984542892084433              3.363732190072764
H              3.117381150756167              4.671345882515136              0.6791173160745266
H              2.5340365312121578              4.393592986729062              0.24607874746576183
H              2.4839156467969383              1.1894399048405346              0.8095574921687155
H              1.8808963141332982              1.534074921645142              0.48707589007767854
H              -0.9755388238674303              -1.30969944565412              -2.004188373166263
H              -0.7837083442312764              -1.7297663919879362              -2.6586227866814207
H              5.058630585008095              2.179470531697135              1.4307499806695285
H              5.250433333888406              2.376307961376409              0.6770285702066835
H              4.09909108577965              4.771729152659319              3.0604975593256256
H              4.257460827328823              4.064759818314366              2.940759925468901
H              3.128721806940991              1.7563270588165405              3.7633303528349002
H              3.130649452759494              1.8141787845962192              3.07146558553962
H              3.26759592275783              4.378657917237201              0.5169081777065289
H              2.5273757442271267              4.050368823543504              0.3697997858126055
H              2.316680037264122              1.4254142888809096              0.83421428178351
H              2.035459511382676              2.074288561040388              0.7086204950787622
H              -0.8521918387972375              -1.4287417342978659              -1.7731031927595575
H              -0.9272130765358426              -1.5301625138861947              -2.4979126887966046
H              4.755969473430694              2.2603503884190803              1.372046029170495
H              5.268264546875713              2.681503970033572              0.9232626000196075
H              4.558269313424456              4.668150494518943              2.817614899170671
H              4.707257720554171              3.973794305314638              3.1001258167039953
H              3.1394266799766912              1.5273500461622385              3.4981718469994534
H              3.275923265385866              2.210037120826513              3.305956379024039
H              3.2204375923551165              4.61336419676164              0.7043229385657637
H              2.6057700257342593              4.304779388205071              0.4351326450610741
H              2.0916896005078764              1.5038990496802955              0.4987084718926382
H              1.9459851209250683              1.7753216149992561              1.14748676605261
H              -1.2028451700975629              -1.36627942973446              -1.5631127145588462
H              -1.4049168953888889              -1.4126707405222878              -2.2696796857016235
H              4.867578026313329              2.213065216198321              1.232073703373721
H              4.8380553396396095              2.6021093515297404              0.561104156136082
H              4.6354017894823265              4.628069482537435              2.690865732065169
H              4.608296303433252              4.038784249313004              3.203472464567405
H              3.2963790370763792              1.6639467364602398              3.7391324466324316
H              2.944157962088395              2.0019178187282476              3.2052037708889425
H              3.0581594786902833              4.673875034449801              0.7319513478460223
H              2.8315514819340826              4.240241050161831              0.20546332061982125
