72

H              0.9563935464734273              0.9059700358079178              -0.5431559663852992
H              1.5184945100521676              0.5520473746378974              -0.7760875682261639
H              -1.065035375723174              -2.3336788334886247              -2.4585083065633917
H              -1.6782219479369505              -2.5215546397672832              -2.207481792906389
H              4.1870931452872595              0.9279299116951127              1.3920013540154255
H              4.50350545860346              1.4179116343819567              0.939897189166386
H              3.7018762015336675              3.7186138204642227              3.0242175103267988
H              4.102506208601161              4.358458347066341              3.0821213973407495
H              1.4623440324055146              2.1577182223684623              2.8132061810759037
H              1.6712599348305457              2.532829665833905              2.1908310513014313
H              2.6548011086478605              4.059945225111442              -0.23225821552311757
H              2.2889375185567276              3.843684018375685              0.3570289513959458
H              1.1039469504564485              0.6279510384002109              -0.649097480932893
H              1.5611229847605976              1.1805918013318488              -0.38356690162264107
H              -0.6955908937932785              -2.3567702239196864              -2.1072582228308008
H              -1.5175345146607913              -2.25013169211776              -1.816092592048653
H              3.7786927203238663              1.001001577341115              1.3594911460639545
H              4.108198608681921              1.516840297981797              0.842535634357925
H              3.9039275847858663              3.526313518612908              3.077291317363459
H              4.4044428763500525              4.0559267748197625              2.8627937239346797
H              1.9431386709833784              2.235651979013652              2.7838842467770224
H              1.2441874527259298              2.3303116176285177              2.2390093566749343
H              2.7682852464414407              4.139125863380868              0.12411927624617312
H              2.178633338532855              3.759767650411009              0.4144788869136558
H              0.8866261129159597              1.0023321605024815              -0.4015343657360669
H              1.6301747051362738              0.9524708919749441              -0.2181611708589687
H              -1.0300634346643023              -2.4472100026775165              -1.7946589489253668
H              -1.8396741259690872              -2.4458230877936447              -1.861426703352495
H              3.5924786029403064              1.0990443013972762              1.4326061719963132
H              4.234925395876126              1.3944208217306568              1.3090946955279605
H              3.9104543498166398              3.670276951779525              3.0725296359374834
H              4.556230353298338              3.9588554021611553              2.9837340610318406
H              1.5500896730656684              1.9392865564630748              2.8173329147225443
H              1.4702072192801228              2.1833692421051665              2.1450813564289946
H              2.8541125753453347              3.889709941120922              0.3430308461341917
H              2.1425323454617367              3.783732803022397              0.22283981972363753
H              0.8030872947253315              0.7990133943786524              -0.5015359147945682
H              1.4851600639680709              0.955085907654395              -0.25103570366344014
H              -1.3735476645171802              -2.5159825351374905              -2.2012779086497005
H              -1.980992499343856              -2.6346924417672324              -1.9087099026152585
H              3.906147598944192              0.8216661063743165              1.2809675853907017
H              4.445796570918632              1.3129757478097863              1.3952108852896188
H              3.4826896934084974              3.780481443424691              2.9897184147573794
H              4.121622623546148              4.113937675105067              3.108594734566545
H              1.453801330194947              1.8219782387070682              2.6615391716352756
H              1.3264316457302685              2.394234685464844              2.1486405514449123
H              2.565914158933889              4.147810017723446              0.03496969932243702
H              1.957445383217532              3.702896056196009              0.12032942205181679
H              1.0372937880978574              0.7979066024878488              -0.7356771112966772
H              1.4659011583913062              1.0121003211202446              -0.11838265569932221
H              -1.400681520896305              -2.2114862850633132              -2.353549473066502
H              -1.9179035971058893              -2.740312108801654              -2.1304511200893916
H              3.6770568918435522              1.0621272502577817              1.3442825334430248
H              4.279627955602007              0.9773753168674604              1.046107142595101
H              3.5946890977661416              3.972197330172083              2.7213957262911497
H              4.069469681111296              4.25257628486299              3.2990094502262446
H              1.8497270300011082              2.1450501036969283              2.7933358831454416
H              1.4895388836117711              2.3527298578263243              2.25258918177926
H              2.491585202641328              3.71421710881914              -0.0181133041954619
H              1.7455325164896185              3.9453788928026996              0.07566782343641777
H              0.7763375986606583              0.9377995027060432              -0.5891948477500122
H              1.4367927563941651              0.7154269582050233              -0.44210174908440586
H              -1.2382596840135864              -2.2615161551034113              -2.2709130591240596
H              -1.8856178576977753              -2.5785672704402725              -2.213571380608283
H              4.031063299266181              0.8921956903433806              1.2495564027913462
H              4.427005440657094              1.5047332800605346              1.1294952460727385
H              3.598922456273327              3.9851694786783516              2.94397230940535
H              4.179638308773848              4.395242078046445              3.0213814410223647
H              1.6905592476941138              2.196809312582844              2.9407777308915937
H              1.2765103376887033              2.2578598533317478              2.3645660005555773
H              2.664267994713948              3.8548083743760007              -0.16540008786408564
H              1.9850751528802033              3.9985911662422047              0.11259788939983316
