72

H              2.2049021575045042              1.6316599758194117              1.1512040617623878
H              1.9519435587980993              2.1598049286178513              0.6410873136750552
H              -0.4692956441028284              -1.2492008974619702              -1.6958657159707873
H              -1.103358695123814              -1.4309357835436602              -1.9133235866798761
H              4.824367304587791              2.2475305279226823              1.3436721611896025
H              5.062816990379992              2.9447688668317156              1.4448668977893808
H              4.536248319835172              4.997899925910634              2.38631912638887
H              4.486341453548741              4.537456711138356              2.9949590894265397
H              2.588909469138983              1.900956550177629              3.895170205499124
H              2.898798219698198              2.340959244449341              3.272794199253666
H              3.003241624023934              4.442403549216676              0.18033290869713176
H              2.8352354049324826              3.9418243007927485              0.6649759626182534
H              2.4636822296713405              1.169991389435591              0.9331019738348466
H              1.866236994582514              1.6211916117446412              0.8884104558896919
H              -0.5205766648723392              -1.110485228405037              -2.0001084496341757
H              -1.0150146705144345              -1.7495674626860953              -2.017613948097938
H              5.030154187490554              2.2142349512198845              1.2540470918601785
H              5.172807196053305              2.8819549768617403              1.0033096102921144
H              4.357097585561475              5.024874661119908              2.6296964419518836
H              4.1004254047365984              4.472105289643185              2.98424101047096
H              2.4119881005222457              1.980371648592429              3.90682039006189
H              2.6449020673513672              2.21791043837092              3.2433153573968676
H              2.785070197181232              4.157688688368198              -0.05480823739630459
H              2.6597751069559794              3.9191760798079778              0.6372030073394473
H              2.420663633366205              1.413672143160256              1.0492262242850514
H              1.7952441834814261              1.7730699005519144              0.9434688333945925
H              -0.27076004179302776              -1.0991486030797377              -1.8794821377256332
H              -0.8167800483448433              -1.5117863132624663              -2.248036144284935
H              4.944236880356469              2.3356071016301554              1.4376167563811533
H              5.319565658965992              2.842701272733036              1.0569309531388622
H              4.3004466202537985              4.982658341625887              2.463278051841001
H              4.282221189186991              4.527173443364378              3.09684563925104
H              2.326458093316521              2.074158867867155              3.7839396421950404
H              2.9433534614151817              2.303459860655985              3.4427054945158204
H              2.5783995373446196              4.363179571663939              0.483587698519305
H              2.8803251507712835              3.713436306317128              0.4194349347912864
H              2.46392656121612              1.3518045022765537              1.086590475555733
H              1.8026228750823632              1.6888825757908064              1.0683814224824477
H              -0.21975387248406691              -0.9589665866334225              -1.8359824509155807
H              -0.8382896558464933              -1.247250323747962              -2.1281653737186974
H              4.532729002621886              2.159770110331815              1.007144895430702
H              4.904172266948186              2.8475752769302933              1.1600993726548632
H              4.129199939980668              4.796516475960739              2.4914986426580343
H              4.461045382949667              4.717853781809093              3.1576846129143368
H              2.7789249873200217              2.1496899323244607              3.6228548351861076
H              3.318234055597375              1.9653710056731255              3.1779060457151505
H              2.8052391047902447              4.43194082876964              0.4612536477357105
H              2.674327916525308              3.759335625405831              0.2616384528726349
H              2.3421730092193984              1.8670754521576207              0.8936905519831491
H              1.7638801926815904              2.0754504804050318              1.212719530710041
H              0.012122802195215313              -1.166993525912393              -1.8550795933204107
H              -0.8033056414816833              -1.1177597120725542              -2.053737523390107
H              4.49249511010545              2.0647605917639855              1.1488474187374649
H              5.08997186374795              2.5236774696401034              1.2529745941953059
H              4.055630941855948              5.000640903449867              2.6953516458702573
H              4.436142271332204              4.451838517099722              3.0000676667696813
H              2.8689195165469226              1.7302974962253048              3.5679957657037864
H              3.223834426297601              1.6136847228751772              2.883857997009494
H              3.088105170542971              4.492515646643675              0.4836109060728154
H              2.863960898944882              3.7816296002755325              0.47662643361502516
H              2.0621431458750608              1.6083547563716343              0.9649670000259096
H              2.040068930432128              2.3738484659214643              0.8722667919064594
H              -0.004591353067560162              -1.1932695558342443              -1.5428445209892576
H              -0.6686692492599048              -1.3889812422296466              -1.8981782926039223
H              4.883876165475378              2.0747031958206343              1.6471141743786228
H              4.869358526819928              2.644150159117799              1.1504295139608303
H              4.476092434417367              4.7728221689762265              2.5891245180944695
H              4.434448139405486              4.329510901050034              3.211613533591687
H              2.6643858507636318              2.417817399667506              3.5988394047193193
H              2.9496782194289017              1.8645164091274529              3.220245203997123
H              3.2489976583573763              4.548039598308701              0.3518980560769417
H              2.9657002465550506              3.792752256034639              0.3214820952543764
