72

H              1.0693211889939596              0.7277714727277573              -0.44237267597544416
H              1.3974703863473417              1.013308771543111              0.11355222587871928
H              -1.1411277492360838              -2.09753823735618              -2.040863949582566
H              -1.7484584396040896              -2.229199259495745              -1.797632350870389
H              3.9188935277643338              0.8605796219498201              1.2530698383794299
H              4.347849293822025              1.4972578705538775              1.028126044284889
H              3.961241920644394              3.780635167182398              2.7201663459979004
H              4.3794938776724965              4.18896009294598              3.1888844991075396
H              1.3744901048819547              2.022529853692794              2.9278023805084206
H              1.5803036367170527              2.299269195370191              2.2604737473776852
H              2.608854091919105              4.267819449360962              0.13929695109075133
H              1.9194308071974278              3.976013019882432              0.21200902968227742
H              0.6986748676578611              0.9416088762202495              -0.2842927904849326
H              1.353064436549771              0.6528331073849103              -0.062399364478060805
H              -1.0332632344429713              -2.228723971562241              -2.086938580982156
H              -1.9133929276112025              -2.139175096062436              -1.9507491914646122
H              4.1006407001722645              0.8627698569442135              1.2153192376832693
H              4.295902743426208              1.6357206641606727              1.1622995246002394
H              3.761595787707569              3.6863638035155595              2.83300379180683
H              4.125386930558378              4.323238825690096              3.113320923550545
H              1.2478730600584709              2.041802643838093              2.7791363852223707
H              1.7961948858905892              2.2069165234353356              2.477376886836669
H              2.8241311915667238              3.8564289193060635              -0.1574070951972712
H              2.139023954774373              3.7611706741382713              -0.01302263218965738
H              0.7619145784584034              0.5767199650090875              -0.32280013160094373
H              1.3778360554950142              0.9096268676405564              -0.4151053144841896
H              -1.0946042582266209              -2.493908520009314              -2.4324384783566857
H              -1.6634102542897415              -2.1806969168577384              -1.9732902305874498
H              3.7260556337985333              1.1204647687108682              1.292854302473368
H              4.3635496417398265              1.3700331167837314              0.9114105750829962
H              3.5026479458207227              3.7994154469290335              2.642811524217666
H              3.951827115287677              4.090607958338483              3.109947177267469
H              2.0670399431599193              2.105092060702143              2.6488640972357262
H              1.518495070847757              2.3739227841669925              2.168821594675777
H              2.709145009039063              3.9371613068014204              -0.20306286378882257
H              2.2408515542956686              3.931529244923495              0.3395275081825459
H              0.5796574334164382              1.0576933892003375              -0.3267161806671711
H              1.2732592617882126              0.9609233107682166              -0.5050377667545851
H              -1.121324609851764              -2.2526612702835314              -2.221177216230414
H              -1.6338899323927292              -2.5865008162932743              -1.9923899837729062
H              3.435344700070452              0.9922706555197945              1.3002733476496178
H              4.088413005421991              1.302533149041888              1.2629860030579354
H              3.6264088068151112              3.778172092520711              2.6918039375090883
H              4.083933230692129              4.10187409338593              3.185318659805585
H              1.881026772623836              2.2345590608220824              2.9309116425525
H              1.4317038950840493              2.081187865610891              2.286649055950966
H              2.591360744534461              3.7004416362546886              0.06477374587521467
H              1.9341798273085178              3.8945738416840463              0.43224613872525236
H              0.7007840610192739              1.0767393340026663              -0.21531969961316233
H              1.1976849154527436              0.7721336541798111              -0.6597986505216159
H              -1.3690584583617527              -2.297465572532489              -2.320529032882513
H              -1.9057993243127735              -2.7195521218315317              -1.9357674663409135
H              3.8225097933865424              0.8578882623078731              1.372850026723147
H              4.338767230002335              1.3895404189284837              1.2001389921961592
H              3.5589681039405963              4.137417122415503              2.8698000385062206
H              4.338212455423198              4.260221841788873              2.889924572819578
H              1.7725407786178125              1.9279721630434878              2.824128378328174
H              1.4737836403119795              2.2560776492765804              2.2159459889468045
H              2.587134663770231              4.247117140477853              0.40848494704858684
H              1.870164960353669              3.9943091153952004              0.29707760834160407
H              0.7803044609757801              0.9718275783522675              -0.6684803951973809
H              1.323827460160645              1.0058402205281498              -0.2422394768752907
H              -1.5081814913352816              -2.1060154696463744              -2.366551076271672
H              -1.9488062249434392              -2.479594559205747              -1.9511777248048396
H              3.7287055922476764              0.8102825501973826              1.1454439463616437
H              4.284233149462174              1.2740019109386618              0.8879365674183408
H              3.6856910232459943              3.9401416280935226              2.8220221155609493
H              4.218598835874058              4.219445137761033              3.2445032994178633
H              1.4910330508545697              1.9625173186875031              2.8230797408050745
H              1.5878403995737196              2.411268842424397              2.253350092476732
H              2.430653749035936              4.344950245566823              0.1235073262931169
H              1.8205237181751963              3.941866087311258              0.32299144768707744
