72

H              2.3905434060083732              1.7146122896243785              1.0383640850733047
H              1.6905809600641863              1.4669333162712255              1.1339534896651524
H              0.028058469044696385              -1.081257723034518              -2.0036280108140487
H              -0.6956872798466539              -1.1244668842480987              -1.8466373397469191
H              4.743695149036477              1.9007820004587843              1.0608899711632829
H              5.02141042435248              2.544821603928084              1.0949988532443675
H              4.060455405865598              4.838267045750664              2.5294907516589746
H              4.041015683063444              4.66625893780564              3.2671510235157806
H              2.40962227512903              2.274574855538895              3.791098924128912
H              2.9591853395185774              1.802963862846671              3.485781407416407
H              2.731288711021734              4.320769470858653              0.25490987920383446
H              2.997915197070591              3.6424435149067254              0.45741671116140187
H              2.240067890071887              1.800694801535182              1.303009003105088
H              1.7336642042498815              2.0725273668248696              0.9069400855405663
H              0.20932202208980713              -1.0036889576389427              -1.8525647102904248
H              -0.4744347646921066              -0.8561703665919754              -1.7194784058208938
H              4.597650388405577              2.0427925146348676              1.1048377488738772
H              5.042663460370787              2.5397112383680156              1.4166702302873004
H              3.991767254734432              4.874825278911204              2.529800108271274
H              4.48542130895079              4.835394871084705              3.057040977784451
H              2.5594216820646754              2.3038409350838926              3.463421304594423
H              3.2905785952153646              2.0380569411686165              3.3060584550557843
H              2.9783108988157636              4.483713477588198              0.6153899173998851
H              2.857990893241313              3.7916858792307115              0.5244334956637074
H              2.2354660852850783              1.6283929518607465              1.1250133051240567
H              1.7651701966687996              2.1340025311090636              0.8555229910002792
H              0.16602522299856529              -1.0199424215832562              -1.796349674622801
H              -0.6056006647242043              -1.2682963956972124              -1.6484301408706061
H              4.653513985899617              1.9610197472474618              0.9202997010682042
H              4.785819067732151              2.683978872531747              1.1543770084574316
H              3.8776174865279764              4.814646637210076              2.53987018946559
H              4.331695854326304              4.732829548772684              3.1379690895870542
H              2.8389024857430774              2.486560312457571              3.5689839915213315
H              3.0173957730178387              1.9336217852397874              3.27539538349927
H              3.092369425619475              4.46306515518282              0.11125207356919387
H              2.824914575300105              3.9491233984626564              0.5641306244624771
H              2.305204941207309              1.6788298006928222              1.0364065337339268
H              1.834749252809567              2.0613272557463764              0.6262066568338236
H              0.11284985368083353              -1.26074540619067              -1.9564546200268282
H              -0.6383883041515446              -1.553932327542501              -2.0167056225362563
H              5.071161459411642              1.968343714274241              1.3655803978017969
H              5.211616537118224              2.71938846448551              1.4633703054322502
H              4.134297862334609              5.017747702433094              2.4908450042535963
H              4.1274412553035855              4.517633370899398              2.998991040834336
H              2.3985814128632312              2.2973856388167477              3.8034093017501105
H              2.7550863669685723              1.7334234187694735              3.597575906649001
H              2.7625770523301285              4.350880335721548              0.11499925069053146
H              3.1004443886205793              3.769199826233179              0.5240670870662786
H              2.207271081040009              1.2346759719934683              1.1759218552162027
H              2.1095525819739804              1.7822901038222854              0.8114522723546476
H              0.05215697935567847              -1.2048424442541394              -1.8320646868615615
H              -0.5512394465577274              -1.5309192884760787              -1.9462332222915273
H              5.092035289706828              2.2430967187457753              1.1217606153335
H              5.111217271025326              2.9227296381066457              1.2865026519470257
H              4.377669075743094              4.6645863227867945              2.508024936987873
H              4.33472240123023              4.74363434350663              3.183677422870312
H              2.1977529167353915              2.4180782452414036              3.6545300858053857
H              2.883464050170376              2.2756379921111503              3.701985338742579
H              2.7198298276170116              4.4154215534944585              0.2979498906026104
H              2.7408621027935247              3.7099282529432176              0.35648945595419307
H              2.2885578227625563              1.6078754359275729              0.9442969172699573
H              1.6325508802892528              1.631865674832046              1.357770716287548
H              -0.19445897340033996              -1.2332379723964773              -1.867509752344505
H              -0.8456100720568894              -1.1726053317848277              -1.8843824055665617
H              4.709510372693014              2.4092065588692395              0.6503269782801497
H              5.212431442183459              2.5864049814838395              1.1195334033538602
H              4.053671511699206              4.826946741839255              2.483295880366737
H              4.3354958216619925              4.8496051437709555              3.2386214444467316
H              2.3825453755418686              1.9299342041766514              3.8020934776120985
H              2.976035605219768              2.2604651694356463              3.56672826936597
H              2.626311678484239              4.379904676187567              0.35700381356681754
H              2.8247945226885776              3.7625747820597564              0.5892911612214361
