72

H              1.8903725675945031              1.339014918169614              -0.3152334590529555
H              1.3178626163694684              1.116000348487519              0.08167554922026934
H              -1.5135853238918098              -0.5512925228558818              -2.4011536332694576
H              -1.0536204427591513              -0.7156197926435623              -1.8685817786394514
H              4.072821812313537              1.5865824944359552              0.6083839356067491
H              4.361235375848141              2.300776483134245              0.663596506995716
H              3.6974062290397445              4.402413915938241              3.1679087649060915
H              3.8886363880861112              4.388907353481959              2.480455590810241
H              2.0438818497196585              2.110223007134907              2.693716839322286
H              1.795270889242105              1.8657237589886437              3.355430015194067
H              2.069030706044452              3.784246217700432              0.49560324405301226
H              1.4402887528613397              4.105689831246116              0.5954960887140286
H              1.7172822985730274              1.4979478225140452              -0.26121397578820676
H              1.083672570455562              1.2505163346602857              -0.09560238760586572
H              -1.8306617926874738              -0.6356984977929929              -2.4955243537801644
H              -1.2352837425204872              -0.9507204714801253              -2.143026522043762
H              4.013553627075621              1.7056330367525059              0.9235443425543548
H              4.536279132159473              2.301976822164194              0.9078565072178183
H              3.5236830437927265              4.431954381443495              3.0158153855394163
H              3.9130417647538054              4.363784448723845              2.412189318768858
H              1.6507386952569914              1.8468319010125325              2.3941462824365694
H              1.8812634270450075              2.042968375215718              3.1647919254089385
H              2.1007994964737704              4.104290548542708              0.6592876346252179
H              1.3682362607524747              4.176300613780966              0.8389667160963564
H              1.7919763618938933              1.316132208633234              -0.6054091332100126
H              1.3235617512308664              1.4238107202797927              0.007831127141786642
H              -1.7753423683149414              -0.4389686428722971              -2.3137952614802533
H              -0.9923349057236516              -0.6499085110077625              -2.3124725670657686
H              3.8291520619619135              1.7474011799896931              0.8198340029630682
H              4.214381633751547              2.4371688542863317              1.0840912140286416
H              3.6379519439216734              4.0478926671862965              2.882880154607385
H              3.97800029652079              4.595535556141982              2.494280797368175
H              1.4718216755020506              1.8914920868649086              2.5106692025587547
H              2.143071443540589              1.9656986209484308              2.9098255510340336
H              1.646684803128556              3.6941627556964955              0.4480564688691838
H              1.6275392498321188              4.001672176894113              1.116644393601655
H              1.6135997839364262              1.4731960953839263              -0.4072298602691625
H              1.5515710197090011              1.1581958754009016              0.28727885840065376
H              -1.5930432302430453              -0.2655105591061437              -2.2272870343467868
H              -0.8969152561078897              -0.5022331615001558              -2.0053380682877413
H              4.04130839241567              1.8050509054887454              0.5485120457169971
H              4.28604900012557              2.458042368371653              0.6342637417297401
H              3.8231795311303474              4.12367703834674              2.935355897455464
H              4.2375922944637825              4.521326111710593              2.4285967467332243
H              1.990898842630206              1.9897018469791585              2.226870005896756
H              2.0319403459427168              1.7785132679089648              2.9748173419033326
H              1.758586745276804              3.806265442356008              0.4474977424784895
H              1.764847801880517              4.43096601718789              0.8316245060649253
H              1.8972154381578297              1.145624523859155              -0.1620930779463676
H              1.2568277494432136              1.1422573088192722              0.24225040335570364
H              -1.4437070316959646              -0.33594135865242475              -2.339667344488841
H              -0.9416767379794543              -0.5726723000691816              -1.9331371688374441
H              4.169630145635751              1.841367982295002              0.34807522126985274
H              4.487650633480093              2.1801009276948613              0.9471984524518507
H              3.9043320659988145              4.027427231988953              3.388389476796666
H              3.7139406355456823              4.26861122867661              2.7060783699628033
H              1.9602297319812152              2.4091030783852              2.364427764799929
H              1.8517657642002907              1.7816078736800363              2.572574224454533
H              1.9982089955854436              3.8493881333770914              0.06996378151068552
H              1.7015898739044646              3.910235735910445              0.7269695265201276
H              1.6540628424074064              1.4086562444546833              -0.3339440929558048
H              1.6177580323160812              1.0564123477559002              0.2529710964331349
H              -1.340643525474906              -0.682084798473505              -2.3951524740492642
H              -0.7122093830450541              -0.5652467869075871              -1.9744903877497617
H              4.331971193869256              1.6352954621129385              0.7736814918915629
H              4.881161570808742              2.2038596465045464              0.6167632744398398
H              3.7283527392446327              4.073044211599221              3.188885669070811
H              3.9947933065665815              4.473566286574321              2.6517985311608108
H              1.560379060488774              2.0501374744247456              2.5250935590552746
H              2.0473094432962653              1.9211547342956892              3.109072010952355
H              1.966067294626102              3.7776536899290543              0.09500560374893835
H              1.658627636193455              3.990184959127518              0.7537992792972099
