72

H              2.248346224610623              1.0174740807877172              0.8642116877051107
H              1.953912066212657              1.6829128550862276              1.013812701888439
H              -0.39273364258016297              -1.0008342789169462              -1.791667176989028
H              -0.6510218231454561              -1.5490582348668074              -2.374564539541755
H              4.6885683845163255              2.4427712716653516              1.2923877152880678
H              5.100626258613494              2.644544765459939              0.7489184891372905
H              4.157776271621537              4.817023320309713              2.7386388200025844
H              4.480277362141173              4.315774590337854              3.1317724005534204
H              2.943305699432468              2.015084877931742              3.5993166274888906
H              3.32848535428146              1.9450878672754661              2.922546756269761
H              3.047796476113001              4.521218160853573              0.5020081110819627
H              2.544474994883197              3.978997381516915              0.3604844883840943
H              2.147357025317495              1.4494620005198726              0.9525710713666359
H              1.8892742688662518              2.214013918529153              0.8876060456899131
H              -0.569399440581944              -1.404640529866503              -1.690400649467804
H              -0.859064934102323              -1.2972817552472444              -2.279232518048272
H              4.609536820563338              2.1485213887137222              1.3852467888154207
H              5.090350065870544              2.58390563556356              1.0239497180938444
H              4.27305275440083              4.765871189162546              2.647628415261666
H              4.532017205261776              4.241090109236902              3.160661232050654
H              3.1714153741870397              1.8062654089214498              3.76888323153976
H              3.1552227103167554              1.6629743249407358              3.0624159432404947
H              3.0734166276442867              4.7256849752781145              0.5336119928679732
H              3.074789539625008              4.055698940751436              0.2820724317999387
H              2.2117283003146055              1.373734758578508              0.6269469732968744
H              1.968498213027904              1.9979378679282613              0.9338467951097333
H              -0.589953657042294              -1.2678939342003623              -1.704253399347
H              -1.1017615899147832              -1.4130392482446819              -2.11546212600708
H              4.897628261174471              2.0791288751151704              1.563012660894377
H              5.038072994794069              2.6767020277600135              1.2840341592776163
H              4.625578859246838              4.741174685165637              2.6618181804509384
H              4.514780871276396              4.1362926380178475              3.024052608768645
H              2.896584508421916              1.7972339019182388              3.84047776296796
H              3.041815339372378              1.8287802310052563              3.0128762798364903
H              3.2495639819442177              4.515925340735498              0.35819526421077746
H              2.810100665834293              3.933275881885652              0.3720100963847435
H              2.087179719106283              1.393409919778974              0.7116706497809974
H              1.8635377189675155              2.0406070214390497              1.0206806720589505
H              -0.6950091704076427              -1.2375328266341032              -1.5586702078140915
H              -1.2370400607804144              -1.4681091356563791              -2.0014023081061323
H              4.90906880337512              2.4338968005931667              1.5606937624104251
H              5.16286493241638              2.8059857986064536              0.9230270211194439
H              4.743114120693407              4.87659254595954              2.6359856276178633
H              4.531654901586991              4.187252233097777              2.9136762261181355
H              2.8710039514511396              1.7252512402878653              3.6437262317051657
H              2.7209983988984283              2.4902537135390945              3.3566771531200117
H              3.1877102648305007              4.763884672523261              0.47952035335473964
H              2.826171958547391              4.133926774010567              0.42963758763964927
H              2.346167755413093              1.0931044126949776              0.839786125364874
H              1.6656055918598829              1.4792557698548328              0.7037878289064207
H              -1.0513605639641248              -1.107303939802174              -1.7576177836225397
H              -1.2400479949170848              -1.6442676969990926              -2.1613019677108722
H              5.190903904235699              2.3539792074644565              1.422492973159284
H              5.046147583719776              2.735917178922828              0.8401056188383451
H              4.450670465390988              4.951422197541111              2.5896608498780855
H              4.188810273256929              4.307281639832333              2.978104960805516
H              2.7500568533367327              2.0656609470907803              4.087552780632882
H              2.6778755253799873              2.404333041911934              3.3742506431554498
H              2.9990938255032105              4.621949192130307              0.25542422306578816
H              2.690691491973225              3.9201527637140865              0.23590864431792266
H              2.477237902131168              1.3401069078032815              0.9673560548609945
H              1.8767290006457369              1.2638572867995734              0.6194642405115602
H              -0.7306326538369116              -1.0107628699314082              -2.118245315893755
H              -1.0415046034055222              -1.629320311213685              -2.4599228363979577
H              4.971632053827587              2.358759252806793              1.4141520298239738
H              5.436334055142803              2.8336999318493286              1.1562552950828218
H              4.2402921410769085              5.066078811039311              2.6698247109328404
H              4.301820397264693              4.39896115247971              2.722414787161159
H              2.6923512241190255              1.5899679582432298              3.6807465298821564
H              3.1122577828348317              2.228114101397484              3.447279856636172
H              2.9309262456749465              4.414921586930147              0.3035756620055823
H              2.4662171143048544              3.916350752235479              0.4953574045054759
