72

H              2.2409720889082934              1.0219606186727022              0.8589149211154068
H              1.9512191918008346              1.6761533810475573              1.0234831988072768
H              -0.4059714601178325              -0.9953432077972633              -1.7884158553227476
H              -0.662968398165561              -1.5359559856202811              -2.370883203558632
H              4.680488872416542              2.4439985060178535              1.2800354405820649
H              5.098227510161392              2.6485164087327524              0.7459166642302489
H              4.15938824380079              4.8190754634529185              2.7313814738196527
H              4.495572271839555              4.327796482346168              3.138094359013114
H              2.9522743201385553              2.0065067430286017              3.599254368631939
H              3.33452838518595              1.954587851282936              2.9317509811812683
H              3.0437562176648747              4.520509765764502              0.5206449874158086
H              2.5435039296541158              3.981131141720442              0.3556038854179808
H              2.152617619361331              1.4505938054497547              0.9444492351836336
H              1.87798916123748              2.2050811606626572              0.8913125982918949
H              -0.5726980613543066              -1.401559104461342              -1.68886329626551
H              -0.8663792076920058              -1.2936907615788433              -2.2828350497280736
H              4.598146740646944              2.142398050626648              1.382581592045921
H              5.094519146667238              2.576347179037944              1.0056928590737997
H              4.265774855624436              4.772621461809001              2.653984590264071
H              4.5238769715067395              4.237967681527456              3.1566029322514506
H              3.189901808691902              1.797748613450958              3.7681574378012552
H              3.1495036262615437              1.6535289013989753              3.0587998724972763
H              3.0805687611872896              4.72784103789493              0.5366193640764697
H              3.0779999147411172              4.057929461046693              0.2819562396338114
H              2.2053580299512006              1.3709496117361566              0.6217053717261364
H              1.967835485527955              2.0105753835492215              0.9209413155865672
H              -0.5773533249074185              -1.2632738942142658              -1.6946591960076924
H              -1.1005956597728916              -1.4167996281372945              -2.1269983955148053
H              4.903143245761118              2.076687196539606              1.5880121147969641
H              5.0439377945994295              2.671551759134392              1.2805313862036334
H              4.621794819786505              4.743085813912253              2.6638099224562595
H              4.512788286201757              4.124628398507348              3.017002335046147
H              2.8945705208951518              1.8076433495783162              3.8444044178347747
H              3.048998811903339              1.8291879637054769              3.008187234930745
H              3.258007209733025              4.516008627746922              0.36869316088727827
H              2.8148739986002687              3.9335488891645474              0.36798944700810365
H              2.0870255394094586              1.3823200823281172              0.7165264518948798
H              1.8712557308264557              2.044145022488095              1.008636275994357
H              -0.6937479043011251              -1.2348485367314097              -1.5503418426515658
H              -1.2444487745646433              -1.4790318072578434              -2.0088134048707653
H              4.911736908947289              2.4409068480974403              1.5593455217472822
H              5.153426140687949              2.8118270959250666              0.9263202973391779
H              4.744880171697718              4.866434108833723              2.630007346942105
H              4.5375800368699215              4.18662864544691              2.9131598608641793
H              2.8823700323749417              1.7311447996648919              3.6381812307826356
H              2.7270600700556384              2.4958831971014175              3.3600497843895814
H              3.198426982683987              4.778374837931099              0.4737389444758705
H              2.809587261496382              4.141476134291488              0.42630321282706685
H              2.3460115886398234              1.0922456839322852              0.8324429615020352
H              1.670055679195732              1.468071893272867              0.70939963574725
H              -1.0673407845794476              -1.1225665196387828              -1.7694701032262103
H              -1.2414737839025167              -1.6456721129334873              -2.164127737617342
H              5.1969275272999935              2.354099560468741              1.4158900438587334
H              5.053713047541731              2.730865247236595              0.8411832165812494
H              4.448326478280279              4.950467230323161              2.6007263318084712
H              4.182041388012556              4.301097734022375              2.970988711210985
H              2.7503008573895884              2.0514176513787703              4.091748598750387
H              2.6696179364415324              2.3934486002445645              3.364382987208133
H              2.9918080527069373              4.617902566806733              0.24183863670027167
H              2.6892300539728526              3.9238216868711486              0.24378382929973647
H              2.4782008400443885              1.3376321640582811              0.9728548182863809
H              1.8807962420587525              1.2616940144179123              0.6156132034384697
H              -0.7393973321130753              -1.019591643293702              -2.1216053815902507
H              -1.0335595863550395              -1.6313372563650117              -2.460248273373327
H              4.976831677074229              2.3523286877230487              1.4223803533713961
H              5.447308210192443              2.8418697647633637              1.1479414301759763
H              4.25294154783983              5.063412620596649              2.673992289961545
H              4.302758782036198              4.387536601909691              2.7326165843404935
H              2.6812668964775606              1.591206630603216              3.6829554645135416
H              3.107140428033953              2.236101579667469              3.459265399305791
H              2.9263040791953667              4.414260492201308              0.30821769207132566
H              2.47059058161702              3.9176575525149504              0.488634854163374
