72

H              2.427987554317521              1.5690912817735017              0.9863768989554497
H              1.679896209009255              1.3998778904868285              0.9354038776644441
H              0.6441281137618028              -1.0898310634171535              -2.049908572201559
H              0.4707484423336791              -0.46998508158364527              -1.7227301611055958
H              4.614517882736842              2.257453579409158              0.8517845591732859
H              5.048478487632101              1.7685897607373762              1.2119985087744614
H              3.4931793600743544              4.4580938567740676              2.758908212857156
H              4.196191482116997              4.462637807358383              2.964005888674939
H              2.7781870778937727              1.9745487959585004              3.4330937911843447
H              3.1418060895509763              2.116006001101253              4.051679293952954
H              2.5348486619862887              4.236067754388972              0.7943421958168766
H              2.8803607440638594              4.176788664924663              0.0925735435292151
H              2.277630024576572              1.6471648805342132              1.0814503641434405
H              1.654355764573554              1.4058154394213371              0.9305143095123183
H              0.8154185083144103              -0.9960808270385841              -1.8164731720556733
H              0.41007641079739293              -0.4397303444950188              -1.4956108157963035
H              4.703714665185052              2.105541683173938              0.7490983225480887
H              4.718282144188026              2.0074686121466567              1.4898076824127984
H              3.7510202261019265              4.3485522663683245              2.9324378048889614
H              4.414960079193278              4.689932255514332              2.994253119488007
H              3.4014076953154784              2.3165706100184527              3.4346791546011084
H              2.890144257584729              2.178857266474026              3.861539862907608
H              2.678706267466135              4.301242737224774              0.5511064386393736
H              3.155680837614169              4.356083955219523              -0.061368443869054934
H              1.994150181589999              1.4695794373174627              1.269987502471059
H              1.6869918573365998              1.667272314140804              0.6312249722230995
H              0.5690631693638729              -1.1353107835508807              -1.8826407836806947
H              0.2584170909758353              -0.5146139555504055              -1.5841371484292177
H              4.651268987314827              2.408610297439376              0.834054722460189
H              4.811629429591374              1.9323867277372153              1.3029792423088986
H              3.6354672009650866              4.7105952997683636              2.8927810668417933
H              4.398884131588385              4.787502988284247              3.052815337935996
H              3.2849660606711497              2.2120585020125083              3.5110471295256236
H              2.8693726425531136              1.7469346565861266              3.8744159626316206
H              2.9073539818868515              4.302809142607296              0.6872285880698527
H              3.2395055989062125              4.236101668808517              0.03425037989961307
H              2.285731731957711              1.1683081954703154              0.7715449596671021
H              1.8696797715297118              1.7807944287577087              0.8521414076762305
H              0.8898437443115953              -1.153070063940117              -1.892324989793435
H              0.12359869237848775              -1.023174526770418              -1.6129069806210712
H              4.748778248818168              2.200241780485176              0.6986967812264157
H              4.947114031923871              2.2899869464801332              1.4947035868221765
H              3.6184175830179743              4.558088525245607              2.8472524100206527
H              4.310276731937859              4.676342709413358              3.077203778529258
H              2.7510103083671917              2.404378194532217              3.556758636634101
H              2.5489508601944215              2.0831582814238203              4.208719571645894
H              3.1052623919210722              4.217504562544223              0.7430942834606376
H              3.0732222811293846              3.898406877268982              0.09656145447320712
H              2.4820888821279525              1.556813479324773              0.9766614766767909
H              1.8390797112090698              1.386607823015905              0.7169167026584599
H              0.6304907383456031              -1.109570211280623              -1.7983645388904312
H              -0.10044698442536786              -0.9834427422187              -1.8337392747061092
H              4.779653083615711              2.52802665706181              0.8130702598398591
H              5.066202360173637              2.3024467824152395              1.4617527318324401
H              3.846030244837509              4.4272473432042165              2.6021858809741545
H              4.259181290760902              4.858168767850746              3.004243062894669
H              2.6140766442836525              2.5662753106109704              3.5453336880751642
H              2.9054995711515494              2.4035775684419027              4.162905797059927
H              2.6188845067382682              4.017120800269375              0.7931032146660906
H              3.130991472117806              4.015169149954837              0.2853045469663248
H              2.6236017416198734              1.374081261316978              1.0991668065230982
H              1.9952583189986264              1.2270230979803025              0.7003312435551698
H              0.45413703950823237              -1.0854137698410213              -2.142614817989999
H              -0.023646320303931066              -0.7204238532771503              -1.7104928948671239
H              4.454243111685108              2.498174685611483              0.5103838608703766
H              4.829225653123763              2.178017807917819              1.1249835468626261
H              3.6158783188817973              4.241266940090699              2.5880766950915755
H              3.998528618883109              4.7724555044364              3.059497595345969
H              2.961708961974331              2.437599386498365              3.4119442673477938
H              2.921226051773403              2.144422826119563              4.028679572245848
H              2.4218439393171627              4.0973105009221955              0.6557682886828989
H              2.8854760294218544              3.9663134030592633              0.1448808730258755
