72

H              2.266403220538197              1.3533215047876723              1.0453791770390817
H              2.038475980291106              1.9862502506263429              0.8104007931761799
H              1.0424559922263703              -1.093275541245865              -1.7297120969681183
H              0.3490981308280018              -0.6446045553969613              -1.6663168458396258
H              4.784533259765977              2.498494537877712              0.9888940313909184
H              5.0970934840047155              1.944793274343282              1.3201585748873816
H              3.831115462524971              4.6890117465619685              3.1687470482654643
H              4.559852826837557              4.791357822431647              2.980926516317916
H              2.9667644114721625              1.7387210477170056              3.285041587975565
H              2.7536482409458447              2.067843442656236              3.9757459220581706
H              3.143278352893289              4.177512141845795              0.8885519315489229
H              2.941036118728217              4.155619338963239              0.15846768093992014
H              2.743773365242816              1.4699033498337213              0.8105092535144716
H              1.932528010558965              1.5621936205417788              0.8557179960445169
H              0.7612360031105752              -0.9466169884583189              -1.8283031568815746
H              0.10671389248218395              -0.7388762655108532              -1.7766646302328606
H              4.770329085381846              2.5058659191542514              0.9534728101585552
H              4.950799300847561              2.030310478915108              1.4996771611270248
H              3.7529051872082078              4.592536378380628              3.026576507359671
H              4.439649340499932              4.816797724883404              3.0420835591582427
H              3.1163939453934457              2.177219243025808              3.1399676345151684
H              2.8495468712632905              2.2886601325424762              3.8339671455163513
H              2.7389726943546404              3.8160240359465356              0.6250490692665145
H              2.8080425667693993              4.286243673899558              0.0833406776722341
H              2.756612000037824              1.6091749416838792              1.076812219119785
H              2.236051022808656              1.6548929502428709              0.6113361429445946
H              0.6930942610970494              -1.023764731613205              -2.1702753091225295
H              0.2814937095319434              -0.4399932003693636              -1.882988582337205
H              4.576737434671094              2.6174748430007213              0.831636398969048
H              4.878639519316195              2.022679029055626              1.3247024125876066
H              3.694046890565083              4.506870747819164              2.7476979762207163
H              4.279638100422006              4.820091878822982              2.980992169381244
H              3.0821608535478666              1.7922644981227915              3.0808049191925755
H              3.1774954542089273              1.9181037224850637              3.7959286583100367
H              2.5238619880899247              3.820453625897984              0.7022561310213867
H              2.6684912887408245              4.265324269086944              0.1194230621666527
H              2.566003869744358              1.6713941892417847              0.9388420560084303
H              1.8670865844064901              1.5512353238759364              0.7899683963560271
H              0.9603168207019707              -0.912899766043489              -1.9378723662809259
H              0.8071490527454833              -0.19400334947432968              -1.7378983054255852
H              4.731325013418255              2.45212268851986              1.0769454088951922
H              4.6789569577646315              1.7232872637312477              1.0842573913696412
H              3.69905721908214              4.56087809547529              3.1335376484677533
H              4.362953738827549              4.448450445755677              2.8289981391906576
H              3.174531786765156              1.4686722538049528              3.3180456711267423
H              3.1572360191101962              2.1538555799937926              3.7192701720292094
H              2.494690816643289              3.923044505380882              0.7191905246813189
H              2.660856595638652              4.2990949692284985              0.0572352891221736
H              2.3211106727163533              1.8895022532950017              1.102425521800984
H              1.678403044610261              1.7642115865946681              0.8018212945779771
H              0.9171419425645561              -0.924506773341142              -1.6977419904473143
H              0.7972533331474995              -0.23291139365341795              -1.6541787706273305
H              4.734500475657896              2.4437327667609265              1.0268768339420842
H              4.705028881878376              1.8449736031157877              1.476878542104804
H              3.914277403573461              4.586731588354827              3.124593621872284
H              4.625262173175092              4.594756280168164              2.895937388078866
H              3.676168770978335              1.6692527869356002              3.519082111952583
H              2.9661342672410957              1.9505049511923245              3.6238683872415782
H              2.819508209037617              3.9265644366937815              0.5024229711700062
H              2.9903174573311926              4.5559285613753575              0.11048769706978073
H              2.2395311387830072              1.3489002052074706              1.1396516885337078
H              1.7354078836192266              1.6459337491722796              0.7110680951794933
H              0.7999979402870245              -0.9451205904106175              -1.783426209539715
H              0.5680522820968589              -0.30244037978479144              -1.6584091344622542
H              4.695875707447511              2.459398026565213              1.0217546773762642
H              4.661900900635292              1.924089595838325              1.4147623193352417
H              3.8322533209938685              4.77859080523666              3.211694358711796
H              4.5351947465753275              4.654679771872459              3.1271865247426542
H              3.578160685340863              1.642977332636885              3.367906453657894
H              2.7494942711230013              1.762361051267782              3.6854983126613905
H              3.147104972971387              3.8081090376926103              0.44253436254103445
H              2.958029557001323              4.453886141471396              0.12302013562866913
