72

H              0.711672534276433              0.9292381804573259              -0.5025042310975979
H              1.398302991910005              1.0234571417596956              -0.38073740993373173
H              -1.410938139494526              -2.1478059632191417              -2.4694985852098834
H              -1.8744705751248976              -2.3894720030366003              -1.8243735474117995
H              3.610163762340126              1.015696628955917              1.1962032050635534
H              4.202952407641236              1.3371606312617883              1.3429996501760053
H              3.581797485994257              4.033116276911325              2.5178281193391574
H              3.7272436542012626              4.000521572656704              3.2170429783746926
H              1.3207912077861328              1.9399182143527445              2.6468815146535722
H              1.9471241245705748              2.296128684483498              2.3884053859121166
H              2.5422678237297025              4.042102304590803              0.2657034356423203
H              1.8338356871760129              3.8798942032932655              0.45355702482693766
H              0.7916499876286271              0.9242601880780845              -0.6027386493512416
H              1.1651014340897636              1.2733641172969992              -0.15095454362381816
H              -1.5689546075087872              -1.9629875054317032              -2.3830070058921273
H              -1.7656252224953992              -2.368921815991121              -1.8900501980691422
H              3.446928642839034              1.0266772393382742              1.2929706412131265
H              4.085964967294792              1.35070300174019              0.9157529545494345
H              3.6469320018150198              4.453934679571922              2.4473706073587427
H              4.0481132289939445              4.133594862932565              2.9483379007978896
H              1.8199842559641872              1.9579197252149523              2.8990083229684074
H              1.7354427735876126              2.263184898111159              2.2055600504887325
H              2.370784544313256              4.116424334424143              0.4683964557833209
H              1.5749356945861257              4.183707267689835              0.47959665386067085
H              0.8329250353770339              1.2718876971668522              -0.49089883207544016
H              1.2793906006542843              0.6440389746056405              -0.48140230360016883
H              -1.6101657406945908              -1.8077229004872357              -2.3073574568813187
H              -2.060731759829613              -2.258132934208615              -2.012980113603983
H              3.682726433044103              0.974209896824474              1.0131409181019684
H              4.0426384743033035              1.576930092574394              1.0328354861001507
H              3.79308328850378              4.318684483186465              2.5172603852726927
H              4.132156259136866              4.250524000032576              3.184060172980313
H              1.5397522518638302              1.9579644992618308              2.944933478601824
H              1.7301329320599816              2.2314145279607502              2.265456283082283
H              2.4691598917623323              4.06440137763879              0.26679395204758477
H              1.7874876117516683              4.302365373814851              0.5057875589829628
H              0.729905558983846              0.8644772527780541              -0.08605025225127164
H              1.2543004170474774              0.5437547409043769              -0.4808315054714882
H              -1.2377585793424737              -1.954485513790004              -2.434752618372979
H              -1.7368285476976302              -2.0116956678617592              -1.7761070262593914
H              4.275380605246184              0.8911315851703804              0.9754611295504302
H              4.276796297709625              1.6675871089489378              1.1228845923983428
H              3.9035938052570818              3.948103522029963              2.5697814010918356
H              3.950508791215797              4.26944868017464              3.201311328998184
H              1.3976382225955155              1.9440588681497981              2.990488816672154
H              1.4007115034706796              2.2496911312189676              2.1954823337006384
H              2.3959149738025136              4.426177932198486              -0.005304561013492855
H              2.043138577611168              4.063402538113161              0.5112429849279447
H              0.6355838258821922              0.6780336348517584              0.0033867310156393653
H              1.3643083117456551              1.0226208389731797              -0.19519225965526524
H              -1.0383947543557035              -1.8225327161796396              -2.209386128848081
H              -1.543761647414186              -1.8960379654112791              -1.6940941993751368
H              3.706290753093216              1.1429036559020676              1.1113484791566588
H              4.056856811947167              1.7031647059795836              0.8685217563866156
H              4.049067163707705              3.820982617421645              2.5196848506172396
H              4.0438275334598055              4.13481074214674              3.1051318311723226
H              1.6207966584474378              2.2926072808619047              2.971678479276767
H              1.894406372683744              1.9528579215842614              2.350968226462772
H              2.631511286929794              3.966772283873329              0.012994675770303837
H              2.0291819216253795              3.853056435221854              0.4095411222057592
H              0.8112949911975927              0.7032975719508624              -0.18821132242323804
H              1.2826932071632275              1.2336562185151088              -0.423718237514496
H              -1.183986580886542              -2.192849560854168              -2.1474278336097075
H              -1.7503264835169823              -1.933009793312392              -1.6791336309060223
H              3.569506475831738              1.2420728142417519              1.0203987681198505
H              4.161229048140163              1.7463752329520181              1.088195797622707
H              3.6754285484759968              3.9272598242621077              2.4750008336696294
H              4.121208008001495              3.934250303998238              3.036352790763538
H              1.5881510408855013              2.0665847923099028              2.8388062606601294
H              1.918430626831902              2.11211932623178              2.2692601746853214
H              2.8390414605794225              4.082753101433455              0.28304998540515164
H              2.1049193922295855              3.9881426761281173              0.3431030624083102
