72

H              1.2930657029792691              0.5838322676768977              -0.5477236056050419
H              1.4405209994900323              0.8298819175838957              0.10211598209702066
H              -1.1400362754443987              -2.667111671068338              -2.075569018220225
H              -1.8751803342424131              -2.966850552680456              -2.1184815854019794
H              3.9942108700669774              1.1086408335980305              1.524516654055467
H              4.753028551549115              1.2601346485744993              1.5041084834036988
H              3.737621100020668              3.519051323854016              3.266366594233991
H              4.200815403750509              4.07438617693458              3.0378216197666714
H              1.357266402256964              1.825865826195625              2.2321909486211355
H              0.9282758748315416              2.5044387573295745              2.3021719734836066
H              2.679120460928431              3.9775660636664187              -0.025825962974717127
H              2.1305369564545473              3.613129319370018              0.35839448464287993
H              1.047453313132721              0.8264573666918024              -0.6268478567365202
H              1.4024713005947596              0.722786776000861              0.04012695200547222
H              -1.330732129016796              -2.290077597987831              -2.195447246195677
H              -1.7251908071453408              -2.9813704039000677              -2.3155660773446827
H              3.778603219443304              1.1819476722070368              1.4679949627755997
H              4.402417225354546              1.2650974790095366              1.1348865739009923
H              3.6809064308687685              3.6907665842045505              3.191396061619081
H              4.082725472904072              4.268759648713004              2.9631583998486866
H              1.7007397969093294              2.106658637538093              2.5871765998236476
H              1.0788432034281958              2.5109997664414423              2.431545253418149
H              2.66392286958261              3.5317256207598926              -0.061064364947839414
H              1.9488791727468948              3.5794538848760173              0.031792504889388534
H              0.9104758591608596              0.3681635711991179              -0.4328277698625934
H              1.1972348584682178              0.9682662660293837              -0.11008703860099957
H              -1.1850453975573678              -2.482234328018871              -2.3359262188638947
H              -1.810351357459315              -2.8241897754252667              -2.435098609799224
H              4.0130754162051225              1.347571308851503              1.5652796060525063
H              4.562760274469227              1.521474669162026              1.0212614892708816
H              3.6289923866777514              3.9347912398885088              3.2108812254219505
H              4.254801641732407              4.146347004817495              2.851144164409621
H              1.8199232327678632              2.267203216817624              2.226287318011499
H              1.1421559674601773              2.4140980240159675              2.6197074304845676
H              2.921769012787964              3.696345802363014              -0.08443966934380535
H              2.241247177679439              3.7697884414698444              0.19536319392243004
H              0.8874103511700541              0.6104997677348803              -0.6436073036465013
H              0.9558771552474519              1.1082491550666067              -0.0935628898785268
H              -0.8322253171279377              -2.496895717509966              -2.333060364701582
H              -1.5252302299961855              -2.7760726458733904              -2.389959136396444
H              4.24310063084319              1.1484887886587678              1.5495316241440926
H              4.507568837086059              1.515196495669306              1.090740225507522
H              3.8637994565290152              3.4652706458010956              3.351127766656905
H              3.952825375009669              4.117925968019252              2.968686240145711
H              1.4676926037756952              2.3542174243767073              2.7383959122515273
H              1.1380696752269805              2.514625378721428              2.129379011925433
H              2.7576671835099527              3.8385261442823464              -0.18910034108951745
H              2.4287768680270294              3.5074215376824633              0.40489158714506646
H              1.1138179439987597              0.6467224016001611              -0.5450357981817976
H              1.311668312279486              1.2448961431699908              -0.12061963123521932
H              -0.6684591044704484              -2.581415902317346              -1.9868338888345622
H              -1.3567774233120882              -2.5544239445582435              -2.0967126508799243
H              3.906160433021802              1.380017136945399              1.6278580015895907
H              4.172673930726692              1.4037462153467186              0.9105113746114623
H              4.142578265104413              3.7016814430331104              3.3602746553934035
H              4.469358911754874              3.790973543284582              2.6635433026960165
H              1.8579542849650363              2.3763674098417837              2.5295797180123065
H              1.2784360702509867              2.351191432696136              2.122167581399334
H              2.9900998792100864              3.858079074507848              0.3360567206632758
H              2.3075890971258013              3.6621775560245298              0.4369142029490151
H              1.03757169878606              0.8031596828868038              -0.5325384332660726
H              1.120253837627521              1.2925516777576918              0.038757246115865195
H              -1.1077093312687833              -2.652074127883906              -1.7495245740448373
H              -1.6836966448996462              -2.6036942237641814              -2.0772215863697205
H              3.656803364548422              1.241942552319395              1.452725441414093
H              4.327860160652297              1.4169587176358869              1.2376486421921908
H              4.055661712094782              3.627483353830008              3.5104954437805467
H              4.535912344072634              3.760928104880733              2.859526449288876
H              1.4266419594448014              1.9061335118478007              2.593062610873517
H              0.8523485483634866              2.270641585496083              2.292648473685875
H              2.988303749834445              3.7622525778969944              0.17792180677466393
H              2.2705053896287692              3.6105641271255884              0.3304946663334287
