72

H              0.9666381295542571              0.8816261960565289              -0.5514665072123373
H              1.6238264003912979              0.5015778401665422              -0.6564007302787828
H              -0.9987253700623895              -2.2856431303874243              -2.452899990874211
H              -1.7232249242647262              -2.5117986600901108              -2.1339631638513503
H              4.245793411273133              0.8903806239682923              1.3764955273627293
H              4.542624761257276              1.405172867986463              0.9833938845427417
H              3.7806424492063964              3.725192294166301              2.980141404312807
H              4.085056267017409              4.32285965392957              3.1429573776229764
H              1.3511695262444454              2.135587519698998              2.8050449009468217
H              1.6759188873417616              2.5313895273606826              2.223543541071701
H              2.6213163825275494              4.148001414472067              -0.22626292725462116
H              2.2679720562360273              3.859319347496718              0.36823954270655745
H              1.0759630655336576              0.667025306270934              -0.6155622772933134
H              1.5158839292696542              1.1135961991201198              -0.2945405930362236
H              -0.7868545494144263              -2.304155306772482              -2.0425343683676584
H              -1.42641400352283              -2.201164215515723              -1.8386579817600297
H              3.828709514748691              1.002068074733954              1.342091050130085
H              4.0703430858482665              1.541194266132814              0.8448628306798145
H              3.934384928865302              3.5484877040573872              3.054784159269081
H              4.364250781829981              4.075679370257194              2.852763991664207
H              1.8811298880761171              2.239516845181626              2.8861741705428283
H              1.3328909522296088              2.298531673264646              2.206667387606731
H              2.8223913457002485              4.097850037763072              0.09451407533232463
H              2.1435064848772534              3.7101849797083317              0.33845553939487877
H              0.8577602339685994              0.9161806641829396              -0.35495650631519354
H              1.6217914610280033              0.9751856950572043              -0.28246441218570717
H              -1.0790759495314184              -2.482667544270829              -1.8474314523214774
H              -1.8077807540547162              -2.3802984211973435              -1.8813547255777274
H              3.5675483079955734              1.1808128687207322              1.40818820529168
H              4.219404982542521              1.3917094858433554              1.2565473470445576
H              3.8419305177094363              3.695974050932253              2.994137800007132
H              4.5212618596440315              3.9390277752583907              3.0043986988766984
H              1.6801339979917402              1.935962494319693              2.775794944707628
H              1.4982991154178908              2.2073507522732516              2.1129891364264504
H              2.93120678874479              3.874272336411925              0.2847791373339227
H              2.1567433526724673              3.831503090156928              0.25736360161281024
H              0.7269044525830896              0.8477995621178858              -0.43657981681852903
H              1.435991809310224              0.9507593994413455              -0.3073000719642412
H              -1.2721471886925886              -2.4980610400399565              -2.2495496131408883
H              -2.0003149960606725              -2.6709136854891713              -1.8784082348464508
H              3.8439324098371124              0.7543826615106435              1.274514486585001
H              4.443266297461582              1.325881972022928              1.4658312147270929
H              3.475089841807366              3.726598381549371              2.9495912220541536
H              4.055272503138327              4.109688654692304              3.1580789527098965
H              1.4432445953452548              1.875582426056037              2.6755862411207105
H              1.2962370291007388              2.3407175284901167              2.1851531987160056
H              2.5201434639904154              4.097007039328576              0.0058260915104836565
H              1.953353480631266              3.7008608387183197              0.18512952174779754
H              0.9569207208553329              0.8673893750768739              -0.6588346354416466
H              1.4520704643711353              0.9824598692989087              -0.17257715695345088
H              -1.441382637150646              -2.2232231485578344              -2.350796052241765
H              -1.8906461749762744              -2.7540012648360976              -2.1200586635699317
H              3.6548792757853024              1.0462754666811973              1.391435235897526
H              4.275007039541808              0.9805584827213224              1.026351221543248
H              3.60663935347331              4.058611786208009              2.7521905378732043
H              4.105067842578392              4.265182161637704              3.186061940285659
H              1.9274965506555373              2.1276412263735343              2.8287333398319014
H              1.511281881590488              2.3431792349216924              2.211140653588725
H              2.4588848861068286              3.752558447816381              0.09561828017821829
H              1.72508802741369              3.966023955804314              0.06622329493500186
H              0.735097263452798              0.9721375597271019              -0.6500098494246321
H              1.4200957964588639              0.7830972402050952              -0.43865740270861475
H              -1.2839235106643971              -2.2233580075964148              -2.2918945085562155
H              -1.9816513242991796              -2.5623191925043334              -2.194568865896082
H              3.975238684164533              0.8650469922834146              1.1826135355161118
H              4.409327735618429              1.5089612274340098              1.0700616236804996
H              3.592138586623717              4.023279389726437              2.945233476867936
H              4.200111950473137              4.377113927157351              3.0505528860959727
H              1.6915822285398467              2.136086308298878              2.950366669954461
H              1.2661371686533656              2.289401179735806              2.3599630239163343
H              2.638432173740392              3.932790311217975              -0.14926305972016307
H              1.9616374391970113              4.028532906982379              0.12277658320478248
