72

H              0.8441993747515067              0.6476387730002826              -0.3786033105133006
H              1.490804870466193              0.9942806737673905              -0.2382336059613321
H              -1.0281687079570232              -2.623341965693116              -2.0318779745509317
H              -1.6334094124837644              -2.845395738894148              -2.1005095169670525
H              3.623833758819047              1.0405270267138935              1.495958234318337
H              4.376114135282012              1.2971110033964734              1.4331824519843017
H              3.6754083825523494              3.6220596699245395              3.187302357972756
H              4.289876069930245              3.993272257770422              2.943561889490141
H              1.6500136562257874              2.1501614502510726              2.2586507874560775
H              0.9314937858073933              2.19007668843686              2.652209531017242
H              2.703475912897746              3.628540362714932              0.08551905841572785
H              2.01749620712843              3.730380673925725              0.3539177223820392
H              0.7758771463489164              1.0375482825128715              -0.4250769024556131
H              1.400548793590063              0.6454484528559782              -0.32339131861945963
H              -1.394435761171703              -2.452034818261948              -2.2281768060333498
H              -1.9440106450526133              -3.1195857527382427              -2.298242763907787
H              3.8766830845243674              1.009717774106968              1.5609480654114445
H              4.511625875109738              1.242830442082324              1.305468276464341
H              3.5884203084487503              3.997599285529695              3.2097243414010856
H              4.310675200173227              4.229302227753222              2.953515295118088
H              1.6554224958045278              1.8651356119097988              2.532163285174693
H              1.2251121494079564              2.5614714857840566              2.4167370245589774
H              2.6083048320442486              3.7870441101895835              0.045704586128198256
H              1.9317239127960173              3.660081495514202              0.17327406619265248
H              1.3275054339843666              0.5110874963651711              -0.7074742758474604
H              1.1937449600174062              1.047998251079399              -0.3309984047276474
H              -1.269860012326215              -2.3957736155253797              -2.4492432287395074
H              -1.8969777208259442              -2.781773527797601              -2.1773498349589726
H              4.022641405707969              1.0649544162185027              1.3433011150568628
H              4.562190816771919              1.3831344362922904              0.8697519589736838
H              3.6427995959809483              3.8165032936830934              3.236464287083898
H              4.17489660942476              4.25885812831106              2.9829386620062226
H              1.7335309280809967              2.1954027718853757              2.4422003753996915
H              1.109162274048104              2.6058107213009527              2.3965857791508345
H              2.5394661353463084              4.257662667041196              -0.057203702582981804
H              2.0938614175727865              3.7473349563527196              0.19582062304878187
H              1.6220832454260232              0.776957017394948              -0.6934962220345561
H              1.3235970261016163              0.950630565154538              -0.08884666713043297
H              -0.9741979978877309              -2.296141060722244              -2.0355869063497005
H              -1.5532642981469011              -2.5814493731170187              -2.1679313296848908
H              4.081181372109758              1.1657263607442825              1.5096108248875133
H              4.467256554723213              1.3900664844512147              1.0237452085869976
H              4.079377125186868              3.4895700184495775              3.242489764893283
H              4.346619750584517              4.189530104480197              3.036106724194729
H              1.429820233049705              2.2984433867612015              2.8904907704622347
H              1.229551713122857              2.448688255967615              2.223190966532309
H              2.8844419173379805              3.86217751975166              0.10717839956062027
H              2.113370352181726              3.7304820739335343              0.12393962048282339
H              1.1349657162533249              0.6910788990217973              -0.7277556678755297
H              1.469233412166752              0.9294080796977132              -0.12461608788588922
H              -0.8448283598727273              -2.548055703848886              -1.92344949812717
H              -1.569552368335927              -2.380315580785662              -2.0981674205854874
H              4.2239337615939405              1.120346356194264              1.5144803668875786
H              4.36624977877601              1.7530656055173588              1.1377157678541434
H              3.987703983759483              3.64093724528499              3.3898027247152216
H              4.294219524065716              3.9877691872020695              2.6962921423659085
H              1.440649191064612              2.231477465143558              2.78209786998991
H              1.3087115694163574              2.292021155816954              2.0819308963404706
H              3.037411418687423              3.8474604898710933              -0.07355844749456623
H              2.409118310307804              3.5335022928066824              0.2332868765547954
H              0.9841141436058153              0.6371319249228368              -0.552698229427128
H              1.395635576093921              1.1738026665326562              -0.3678717876133851
H              -0.9552683425217164              -2.6383613584577486              -2.163250525921033
H              -1.668006315201478              -2.5752382342794635              -2.1792137754674314
H              3.689872960097031              1.3848528893429581              1.450015813816787
H              4.263959893042173              1.2411419901431096              1.1213987884421242
H              3.737932040439306              3.462213237444054              3.1986266063819624
H              4.225575005890069              4.003332069401788              2.9954490688656734
H              1.7304805406148567              2.120228037892947              2.5032676827328473
H              1.318593641427254              2.343783063369253              2.0562849978541804
H              2.8938663522495163              3.5998370138231754              -0.13857300437346626
H              2.401926213415375              3.671344421858357              0.440256789096518
