72

H              1.9371927245139382              1.3248163574512015              -0.3190771202355284
H              1.3158618085048088              1.125823092098067              0.08744861411959053
H              -1.5418233721181183              -0.590284203091708              -2.4042479264184857
H              -1.0552623095952702              -0.7235818464126988              -1.7515400952648552
H              3.9530678388498073              1.6245287550543663              0.6265176938167262
H              4.307468754722076              2.228685981932827              0.7268014517082663
H              3.7021343066626375              4.343870036953332              3.147346061458688
H              3.9029539930105934              4.358361622313067              2.4988357884420256
H              1.9595429442893255              2.0891316664056765              2.7220800562722243
H              1.777429422508955              1.8159741110829717              3.3889480230337283
H              2.025850831939338              3.8186572840629687              0.4797254602894712
H              1.41088987083518              4.091643753168966              0.6360002200180382
H              1.7742715427760911              1.3494268081679075              -0.263484065032323
H              1.0868511322027692              1.2487550801344363              -0.052371955585065834
H              -1.8569905724368674              -0.6803541050185986              -2.506244287771882
H              -1.3129117861186574              -0.944711131973428              -2.144742082606295
H              4.05110948735321              1.699277245647028              0.9819011516825024
H              4.539631568913948              2.2822030872651466              0.9299998336063532
H              3.5260143324380784              4.542958470828828              2.9848855369776395
H              3.8732423787716304              4.346608950621917              2.3846654183280784
H              1.64266860379814              1.8803268803812603              2.391510467164882
H              1.85631303951001              2.003895754091676              3.1312283797661666
H              2.100275701063228              4.057640274961884              0.6757308559534948
H              1.3877638326031165              4.211369798096855              0.8252037376078412
H              1.8046629384477928              1.3134179215614574              -0.628737619311403
H              1.274030607151937              1.4207732425265676              -0.07786850079606361
H              -1.7860518814360578              -0.4851608999738903              -2.3865602861775135
H              -1.0390930354863939              -0.6385595552175488              -2.3674035172127055
H              3.852657741022508              1.796138485687256              0.8106194835696536
H              4.209050523410213              2.378353357340353              1.00201300630042
H              3.6180771679081185              4.145815182349014              2.9144521967608967
H              3.9200979599538446              4.577501955214672              2.491262680591208
H              1.4648961952106772              1.9209096394973961              2.4877495755484014
H              2.1182984810883956              2.022898358732259              2.835433671841159
H              1.6359024809595506              3.6808967240487793              0.4300458879131615
H              1.6051491106978106              3.993082289810956              1.0461367314245598
H              1.6361474555605233              1.4353052155617962              -0.42371942383304884
H              1.5352160671726063              1.1970988059444372              0.20498715328527733
H              -1.577028943075011              -0.2695974299279858              -2.244281287727485
H              -0.814432495918295              -0.5588594830376346              -2.0244836806774016
H              3.976531706536436              1.81189404889057              0.5652402227919031
H              4.254487506776552              2.4861516278151057              0.7039821837981984
H              3.904516863303879              4.099396043733068              2.9545971403233486
H              4.228033254000152              4.550271985239662              2.460762464015713
H              1.9594989427777294              2.0055889854010505              2.2571817632712077
H              2.0636342520179776              1.816997412176192              2.9169088536138252
H              1.7299703353227525              3.796871027029503              0.4383693625957679
H              1.7711662402743176              4.37434262253348              0.8499215927584315
H              1.8782859350678605              1.145215841322815              -0.2933560164772256
H              1.271247241864171              1.191796654431172              0.2623182485756966
H              -1.4285048230616835              -0.34279900698256455              -2.2879229870417954
H              -0.9102339131841607              -0.6237048952617371              -1.916892946883824
H              4.3070472701551              1.8191429662589027              0.3522429972048828
H              4.472678617816977              2.247357298845039              0.9306453677882254
H              3.9735309083126342              4.0690702004698895              3.3567843067979646
H              3.7229724998652474              4.2200190279633985              2.68023061779386
H              1.942808569569856              2.476915129695542              2.408635294984145
H              1.7847364921282833              1.7245944996082638              2.605521206538862
H              2.019025163616017              3.821115717189294              0.05834789710169401
H              1.6894139136705142              3.887567399014569              0.7712292856944704
H              1.6527999359731278              1.4664668672805636              -0.36482452371914703
H              1.632777266713838              1.0082530724852892              0.21326593685154707
H              -1.3395745484315629              -0.6587124987449006              -2.38142839023672
H              -0.8289553214844704              -0.6353986751502265              -1.9659697378791905
H              4.314353626872131              1.6476127251821222              0.7295042188665043
H              4.8644954871329364              2.1572138230027553              0.6014938640256353
H              3.7288868535691964              4.037617135248144              3.2116540250070895
H              4.012176223401368              4.42817698197228              2.667310066254871
H              1.6000405251524217              2.0642872404604597              2.4658607381031876
H              1.9884935687876113              1.9241779498383278              3.1739915878071217
H              1.9386673321167558              3.7886813822537344              0.12128659887741584
H              1.6103611975556555              4.013106706381771              0.7242840595790626
