72

H              1.8372381841405783              1.9725636618371132              0.3041286737497801
H              1.864602080849691              1.2882438147187112              0.6370951408015302
H              -0.8331172285691659              -0.023644793954228818              -2.1919532195696445
H              -0.10054436099589298              0.2282666665458649              -2.4954880218302335
H              4.870339674791225              2.0422265435065325              0.5335760124399054
H              4.437530542185151              2.7299855490898546              0.40988740844088273
H              3.827016865343787              4.352180403167753              2.6185695961937783
H              4.062455003099714              4.759037922092058              3.2717206556064595
H              2.848257423721834              1.3890441546681263              2.9028797330110354
H              2.762275286421501              2.0836365700569144              3.050444351487654
H              2.956047139093837              4.368753150809093              0.1445797658698968
H              2.270821988195766              4.320585149231018              0.5663650437833309
H              1.9542269087102444              1.896473852791237              0.2302556677617642
H              1.8177792523683307              1.4043418046738496              0.8690677310126913
H              -0.7732063221656731              0.0958367950197856              -2.0291189219731978
H              -0.17018656771019386              -0.08287765835499543              -2.3419555864859003
H              4.378390079279181              1.9633112475634713              0.628259277644165
H              4.784097541892075              2.5234631109592955              0.37494790364651215
H              4.112241178946695              4.039782296803168              2.859505081603696
H              4.105898960544431              4.510911477134498              3.527077857833901
H              2.763753530615042              1.2747462521862825              2.9938371304320537
H              2.8584714616864146              1.98938025049709              3.253746006151835
H              2.5304433754789786              4.64165597865654              0.16464978987931472
H              2.4376609091215933              4.098706786323332              0.6316505717676157
H              1.905586254644243              1.8088472401707882              0.30359375149644313
H              1.9671414300046002              1.6750817590069869              1.0483111648899588
H              -0.757256805446233              -0.04043779864125445              -1.6599996905736514
H              -0.24422517526102433              0.07249219741006842              -2.05315020979718
H              4.543381679264778              1.7851006520616064              0.6519969721994127
H              4.572730281546374              2.5566947231980754              0.5189696086513027
H              4.268389701787246              4.145011588712064              2.7628201046418264
H              3.964310068034566              4.267537633450497              3.4028392694147658
H              2.5504432874124654              1.2305793358161665              3.484001520014567
H              2.7873969064536728              1.886910449229438              3.392932034724048
H              2.4938438549252018              4.404186250149783              0.15812879253870724
H              2.512996533820843              4.039440548828115              0.7901138019977236
H              1.8061988099855402              2.094238595134141              0.18326927119864594
H              1.5224252156067786              1.8728125025636178              0.8133806151842554
H              -1.2957319660356337              -0.021798942604783652              -1.9922537517045766
H              -0.48973008868759005              0.10542882950126672              -2.1445532186587406
H              4.824547277659049              1.9207039101046959              0.8121453989867181
H              4.593571372692936              2.346141786050181              0.22174073681291254
H              3.716926318281751              4.4786253209993              2.6572502813945826
H              4.075406172971916              4.377003346633369              3.298812446468953
H              2.3981354304747295              1.5753828149703015              3.2955483144745377
H              3.1683344837112846              1.5514098567087349              3.630259957343804
H              2.7382349378711996              4.27335313104455              0.1634783405044428
H              2.2701118604798376              4.4917314444900525              0.6829749239732685
H              2.038058908332122              2.134170112987026              0.10871534859532352
H              1.500803226399377              1.6942046482768618              0.3855709918076144
H              -1.040523560915127              -0.1619372501746273              -2.21545165935847
H              -0.49531866091490107              0.21898229922645593              -2.334262982786815
H              4.176710239443458              2.0064432413353797              1.0224833991318643
H              4.222221751424449              2.4029979752328243              0.34630361288417477
H              3.485162876334618              4.528212439288585              2.6838404588296654
H              3.9380409599204684              4.416209023259383              3.295046993089466
H              2.3539401149344035              1.654098555638006              3.3289084466529637
H              3.120551280376126              1.4503474471031936              3.4873624328338786
H              2.6439393343302857              4.452326228834423              0.02890589040974003
H              2.3127756584840276              4.30154855738256              0.6771907406493043
H              2.016263064268521              1.8512832464990416              0.27971277355215574
H              1.4309392475855585              1.4526745090934385              0.5483267820427311
H              -0.762643790369722              -0.1075829967803341              -2.145755370893366
H              -0.22595863551842485              0.1815730219586117              -2.5755324953857617
H              4.560375486930062              2.018694589652503              1.1039699697779073
H              4.302148232958198              2.6502733534538736              0.7248237023612243
H              3.8070392942841913              4.676317279710697              2.443126067664376
H              3.989052352599939              4.612290773788013              3.194865157387261
H              2.610110815081274              1.2327217008756874              3.071830855168218
H              2.99738417698828              1.8363640485357426              3.256588720663075
H              2.8119452882298503              4.506296395989025              0.1807680257786396
H              2.3989273680249585              4.556677974564656              0.7919774331174123
