72

H              2.332296307838986              1.6008901771229742              0.5530434037613661
H              1.643648060137941              1.7131903047089778              0.8399177801346679
H              -1.2280551356629015              -1.2836607260950994              -1.6847718198045156
H              -1.4963342474516137              -1.4536035144892525              -2.384036551774312
H              5.196041438343118              2.158619334148843              1.4976187276485682
H              5.183571228433098              2.528425867843987              0.785191940560556
H              4.620047921955839              4.763184117089298              2.8154665210859453
H              4.436234966839944              4.055140778178463              2.832616119977989
H              3.0467002557178113              1.6030364269996824              3.8451569116611783
H              2.722341377544718              2.147059150459764              3.5709091634414873
H              3.056239256413651              4.692579506242868              0.6973528566493346
H              3.0188981471224228              4.155198701444994              0.17952320669099558
H              2.241193701397369              1.0934313020661              0.4943276221149276
H              1.7058766604909643              1.5347039521697703              0.7772453009467923
H              -1.1359820744563702              -0.9172186139501833              -1.7545847906147491
H              -1.2002753879231367              -1.488907012812927              -2.2421247018443298
H              5.214309642431247              2.4481091769177343              1.4798893521451946
H              5.110225005981963              2.5744044942666138              0.7050082259449005
H              4.521412539669454              4.909988609177921              2.71080432818848
H              4.578069063026321              4.1722763347394745              2.90930998357299
H              3.0836386305943155              1.9990612850865324              3.880309437387913
H              3.004205134178848              2.5019541719619727              3.4648995429828893
H              3.0880167098872935              4.408894195848667              0.749428146476937
H              2.5854450352689042              4.369813642537583              0.16973545897583125
H              2.3170422549158545              1.0645198189620941              0.8312619838081854
H              1.7778719303460986              1.61202961029859              0.6198311321583864
H              -1.1275592601614945              -1.0891405877990556              -1.8224844003600174
H              -1.122384453676797              -1.5744655007562425              -2.4870163201408055
H              4.887378283782475              2.573554765496567              1.1901207432148684
H              5.209216085345101              2.421466820526234              0.499573939988481
H              4.137009635560449              4.998875040790324              2.8321271295288
H              4.434675455658              4.294390178468497              2.852311473444546
H              3.4689656531207818              1.6635153093406851              3.706242534303534
H              3.0171233286829926              2.1987957262706948              3.348194972615073
H              3.1203647646526136              4.679749177641507              0.6834783712856037
H              2.5529059155967238              4.39831353143973              0.24234886101735642
H              2.480168736402101              1.1914199871713143              0.8124395760967118
H              1.8893598630904818              1.5277525669798582              0.47435581816234423
H              -0.9795117240843796              -1.3095018930818128              -1.9989665440018023
H              -0.7880675205191544              -1.7396337038906646              -2.6577398101810794
H              5.063041671599686              2.168742331649865              1.449409134601425
H              5.249037261248275              2.388078672815228              0.6804431668566732
H              4.103452545636693              4.773281381722013              3.049448726295763
H              4.253210454090298              4.058132417233102              2.941526597917053
H              3.128487308832441              1.756861846619697              3.7688656173723083
H              3.1239840860258377              1.8202297696909413              3.077466387946178
H              3.2658117870416596              4.382947774887991              0.500735112680322
H              2.5294394286573403              4.054770036756566              0.3666043692408405
H              2.3264258621304292              1.4187208691171735              0.8293981420918269
H              2.033080508285311              2.0677672001952283              0.7157354606723247
H              -0.8512566774242761              -1.4268990548030367              -1.789156558180442
H              -0.9289283197560713              -1.539503269147371              -2.4908166586043734
H              4.7607241914767515              2.2683533591997134              1.3791378525464744
H              5.279326957662433              2.6911955311332707              0.9343582589599642
H              4.560233029292485              4.681896492381593              2.8176519120764696
H              4.706510895978265              3.9620390130477916              3.0896368293112224
H              3.1221167311175986              1.5279888226500973              3.4910749648318515
H              3.271695555205509              2.2029772777166494              3.3055571803547297
H              3.2198793060869613              4.610624735177639              0.689481394950707
H              2.5902366639731325              4.296111875608539              0.4451668319334573
H              2.0935804076627735              1.4883614432826187              0.5151823857378993
H              1.9449823002984519              1.7755625344091341              1.1460115008306417
H              -1.197405722028306              -1.3644995416341068              -1.5512330638974918
H              -1.3985528167750132              -1.4198235035269204              -2.2781018512675257
H              4.8708205782266925              2.2238692157376154              1.2226545558266286
H              4.835146917496284              2.6038331402005253              0.5549906751288763
H              4.637693518672788              4.617036711211853              2.699275866146011
H              4.606140322230356              4.0522490298016995              3.208686057066818
H              3.2775177795525816              1.66804523092812              3.7431750324603086
H              2.94240275032222              2.0177998322113613              3.2100611877501577
H              3.052961419961469              4.679814699918677              0.7286325371729913
H              2.831940385687559              4.235508663961902              0.19919217306794162
