72

H              0.7209982991897115              0.659853316843942              -0.5138843262854574
H              1.3568880033703943              1.0072185598989063              -0.4251292670616978
H              -1.546331144896544              -1.5152667095155474              -2.4997521157087643
H              -1.687123567479501              -1.6947814087154582              -1.7921997033743782
H              4.198925406988235              1.2709282392343486              0.6502172455669134
H              4.110128734103301              1.8608130466440578              1.1054941727721024
H              4.060648741953585              4.257175243835098              2.4837453207592244
H              3.7543898396112314              4.235000709694563              3.1737325473732394
H              1.4616929486201213              2.060749045721958              2.9882828635153498
H              1.291705819046079              2.1015755230293998              2.2836821397451845
H              2.2788060632263187              4.184532565949702              0.09747621916049383
H              1.8394948608629038              4.065389772787763              0.6926986693157444
H              0.8942001917011931              0.9639905777026989              -0.09084730091059444
H              1.4208448591105685              0.921558304656436              -0.5140343110275379
H              -1.2294481488594755              -1.5791947881312447              -2.3268064666171893
H              -1.4100611977897415              -1.5495643047604217              -1.6564515502450938
H              3.673160184403159              1.35614619139952              0.8908211287002118
H              4.1674319968855595              1.9218981230983465              0.8212683774577738
H              4.328031172810649              4.220579428368748              2.5570615073954612
H              3.81235934828184              3.847024762879468              2.988026023490429
H              1.3624995647364813              2.2607134898603194              2.7647319906569607
H              2.0125027260803674              2.0658081868555302              2.4474662203952846
H              2.2708751195918553              3.99910324697023              0.11372855424273282
H              2.0064806606387218              4.091876494541344              0.7757275598206533
H              1.0675844728140291              0.8198076146452372              -0.6197460753242362
H              1.4285531209527806              1.357968363704294              -0.3494987367209066
H              -1.2477836114500367              -1.662477125825267              -2.167132223264634
H              -1.60297824212491              -1.7456849446732499              -1.5243342932729604
H              3.7675431355547837              1.3383434809042811              0.7742387042844516
H              4.0688772584601995              1.92554073738825              1.175176068991894
H              3.985674472452987              4.081938655408315              2.4041118979193525
H              3.8947695272290592              3.9577007776265996              3.091754991121025
H              1.294705107569524              2.3762030246547896              2.7141561913941947
H              1.7169056638522786              1.8190305532629003              2.8141461927234848
H              2.57257500145078              4.067513036469508              0.5089721273914893
H              1.8787487949349981              3.836248897863549              0.38304526225642727
H              1.0967244577339648              0.646524799872579              -0.723455179620028
H              1.5238822545355126              1.0075495949292654              -0.2140872642478894
H              -1.685172847786657              -1.863067150030339              -2.5608358347757836
H              -1.8053995631004742              -1.9950616263869745              -1.8043127528367573
H              3.7059008469986536              1.271737535105413              1.0879079531398097
H              4.420150312173762              1.5652638676014399              1.0338421162049896
H              3.713968464035272              4.511734934905309              2.47941985895185
H              3.681735746504724              3.9282630732629986              2.9530128531419826
H              1.192595075259969              2.0869371968079338              2.6357255587491646
H              1.9739219488297848              2.1603781851516275              2.5762746396481977
H              2.4684976489569923              4.073734205978237              0.5648314401616865
H              1.7237462746064978              4.126097321746366              0.5534868321605437
H              0.7486304248077051              0.8923377495845736              -0.40846204494623894
H              1.434686196202868              1.0479216671138534              -0.33342642582791837
H              -1.6957265783436453              -1.5946321919010569              -2.524845956628876
H              -1.7700383930822479              -1.9833365438332535              -1.8060317409544173
H              3.3061936589009684              1.1908793008251586              1.0274641155938726
H              3.9030194958775426              1.6635048107868633              0.9436289027759888
H              3.86467863965929              4.6054696898542025              2.53373946499018
H              3.712273418261779              3.998732741741307              2.8394373145468874
H              1.535533755998197              2.023071979374608              2.934699698611032
H              1.6484203746293036              2.263438678417351              2.2390845285944927
H              2.053271922130815              4.010794850802495              0.443894494863675
H              1.5611783435483966              4.186622923421566              0.892390228415155
H              1.1842671462929577              1.0837191876532577              -0.7101345465800339
H              1.3657399884788701              0.6000465513271117              -0.2004908108904788
H              -1.6470030066901484              -1.386506752098135              -2.353836759103357
H              -1.908136986744628              -2.0835830980664722              -1.8943450299278626
H              3.6642007119122653              1.2165059946859005              1.0181919552458125
H              4.014918964063942              1.9243841472459704              1.1602107625977818
H              4.124045751474575              4.609206022276296              2.3866845222685757
H              3.9585502714525314              4.209369127495482              2.9966041114237965
H              1.4222534091787196              2.140908610936972              2.8120181705105796
H              1.7937104052101227              2.0410672177983398              2.274647609420056
H              2.3002827289520837              4.063059492304447              0.6324969453475244
H              1.6274421122941323              4.286784042744657              0.7620522736806592
