72

H              2.253367594590901              1.482867492724312              0.6170033429591605
H              1.6627921815865776              1.6826556147440097              1.0032750023963688
H              -1.0595714588524723              -1.0626781453908813              -1.668404846123184
H              -1.4287125186442031              -1.2515442305889757              -2.454353190886592
H              4.861148435286148              2.1236706738196998              1.2472118447724707
H              5.191968624190952              2.7228302688102155              0.8597577067994824
H              4.401144420511655              4.932539777996871              2.5947761233295923
H              4.626287805712145              4.407251915539905              3.0298947792244273
H              3.0992233548707415              1.5149673370279912              3.896815650023247
H              3.1099312681196976              2.137186965527794              3.4929362983433014
H              2.8963201446871634              4.503924805971697              0.8142790641605946
H              2.8656861910135234              4.038623855291949              0.23997030142079814
H              2.2702989703265226              1.277735176297046              0.513374173072332
H              1.7065471862749446              1.569619884542388              0.9432157952647844
H              -0.7020041150926868              -0.9915702721531059              -1.7774341007163001
H              -1.105118711994038              -1.353334326927044              -2.244010250829492
H              4.796634106559748              2.318584239556808              1.3448686611391534
H              5.131342612524492              2.4482597322689967              0.7147577551101605
H              4.352096820108117              4.937584928673541              2.8165446953092528
H              4.41728376618099              4.157078627286873              2.8710487661494146
H              3.3949416425311867              1.7648657332844375              3.6922616419997416
H              3.053072305714888              1.9462749534951391              3.1240921967631796
H              3.308636071344833              4.511331516036855              0.6650999995693334
H              2.679969571746453              4.1883496217099525              0.3319734509397099
H              1.9265119850882304              1.2826896578761666              0.7259447568594974
H              1.895100587081984              1.9771637819246488              0.6213468570821643
H              -0.7116456065735239              -1.2311309896201044              -1.6293570158102346
H              -0.8968073817910669              -1.4126636018947398              -2.258115875746068
H              4.939236612932985              2.490031857072848              1.5588283464658357
H              5.136058680506761              2.2838415576882203              0.8693548202379434
H              4.257847167790039              4.823457652775629              2.7738593962777993
H              4.455242357110854              4.14090615389406              2.866286064707832
H              3.1981377595726452              2.018934498804803              3.8095800526105403
H              3.091030165919764              2.081474960805262              3.099294335658862
H              3.2632404016242136              4.714233723768221              0.7264356896114451
H              2.955624367795338              4.313909186151584              0.2118856402208374
H              2.3050268979661013              1.2032803431729029              0.893099497747376
H              2.0477592370045263              1.641042954424333              0.38054730223760475
H              -0.9814074540535135              -1.3134429216780275              -1.7856396308427398
H              -1.0698871973234552              -1.7655693734460463              -2.4022311659500195
H              5.092937920241789              2.166453298241771              1.5591686943860565
H              5.06206436403173              2.770068737699099              0.9822812817353997
H              4.408759578390085              4.745436365805409              2.649629965297417
H              4.365738715147824              4.036266763154295              2.977335110737944
H              3.164557522488791              1.7943504312865537              3.8277914951307754
H              2.9830675298640346              2.1976934174478333              3.2423432232826617
H              3.215116216631453              4.6250978069802695              0.242444174216248
H              2.556961037882343              4.303852252794652              0.2924136951492858
H              2.4871692876301386              1.2122628397584343              0.6872559101579818
H              1.8925360653527545              1.685056099627753              0.8845694499217005
H              -0.9761659042257268              -1.3341567178879403              -1.9362966047747618
H              -1.1371560904266265              -1.7789919215208994              -2.487376912329365
H              4.9940287744293              2.3406328813555763              1.4775421765563486
H              5.414677253496773              2.8105191482940675              0.964565573472756
H              4.515265742546378              4.807036394853821              2.9190238298877165
H              4.432146371034681              4.039858808954069              2.767947474095684
H              2.8322142581077556              1.513415265612492              3.6057121195618382
H              2.907622824180957              2.056710681082787              3.2113387993481313
H              3.0247421669944807              4.499114920350748              0.24532204954678188
H              2.474702458511851              4.092407724781107              0.5920435214320883
H              2.3154513793666105              1.1435757292543292              0.9036588758374269
H              1.8611251314614146              1.7021487297895945              0.9223442883487685
H              -1.0406317080545722              -1.254617652288789              -1.6523299747378124
H              -1.0462237966927492              -1.6574472513262941              -2.3862282206009207
H              5.051192683780643              2.4204704673293262              1.2716306769835368
H              5.05186885504977              2.6759544828944946              0.5935464663072528
H              4.630495856169227              4.642380553006618              2.798401696299231
H              4.491917714839366              4.1707396007063124              3.2717581075917885
H              2.774770882149513              1.7850381681349876              3.814726706585127
H              2.8883377592296062              2.3779157860813465              3.437965386455638
H              2.9596264506982077              4.706701346367462              0.576941388936434
H              2.758968288630409              4.056002467502651              0.16774689192499342
