72

H              1.0428747124243154              0.7397705350399878              -0.5825739489130285
H              1.670317160745431              0.6683640669459155              -0.11411083868363384
H              -1.019118688105806              -2.168683364264819              -2.233867001609316
H              -1.6999413993484562              -2.3694665768327576              -1.9350716048784855
H              4.177925463213401              0.8320408578454244              1.3324066389876197
H              4.512641236803231              1.4254747438731628              1.0434942595422976
H              3.973481956437834              3.689812947851507              2.8289430171567598
H              4.194335267030154              4.269065352811637              3.233320274885353
H              1.2622840466113303              2.069582931079355              2.86531873427948
H              1.5773442992608295              2.4277861924257444              2.277272047851857
H              2.5956386701696372              4.2969530489477465              -0.05179764551103434
H              2.077274325555509              3.928564148388937              0.3123826265891171
H              0.8051908613080132              0.7998321336135208              -0.46990406219833475
H              1.4546188222437078              0.8553578290022508              -0.038522670642871175
H              -0.8900793928832355              -2.2239810856601743              -2.0083584292948373
H              -1.6236142927193802              -2.115215440486101              -1.8749884609961374
H              4.0167000876450025              0.9450964979706157              1.2500691154575505
H              4.132323463960163              1.6247423430837629              1.0239953763853222
H              3.878159094161139              3.5983716454381636              2.986642774233236
H              4.255150774614099              4.246731306201133              2.90200938550037
H              1.3824283888557498              2.1674035105005074              3.038516534176452
H              1.7739721857669695              2.198176556456091              2.2221449593376437
H              2.8826898812650206              3.9123077677995473              -0.016470490871486523
H              2.1285381087841286              3.683398673579333              0.05559673563785151
H              0.849881191525416              0.6313749678106678              -0.2687746063554692
H              1.4917320086018744              1.0030275808797968              -0.47214089867703435
H              -1.1158388843060218              -2.545003570335954              -2.1680652813591172
H              -1.748181152159684              -2.2183064338721317              -1.9442304869622398
H              3.6070794188187763              1.2666932468606564              1.3103515811634203
H              4.251570596413191              1.3739068067018685              1.0455603742296107
H              3.57846694042943              3.7712772940796957              2.7719216735803656
H              4.264000685040836              3.9549578789887407              3.0581243145234134
H              1.9915476768460711              2.030254166274734              2.5989880151901605
H              1.5777326756203842              2.3017514927341214              2.1327532150366446
H              2.893398554984017              3.8957143188341865              -0.01990084406389554
H              2.265034635798594              3.935036743328057              0.36993825570801964
H              0.5837775895856694              1.0108846225142645              -0.3090631855067001
H              1.3086263438487493              0.9635531457178523              -0.44863489603725276
H              -1.1455163041536338              -2.3685481824356387              -2.226350672006059
H              -1.7906569410862898              -2.6927214458782798              -1.9318882877910577
H              3.6349666548881863              0.8255632190216047              1.3217707295481171
H              4.225910818644847              1.2614584692210478              1.4495472358931347
H              3.550559767808251              3.669285366554299              2.799363869043316
H              3.983481274828015              4.083048133963763              3.2406835784352315
H              1.6562138423219797              2.045555164877047              2.851399772213567
H              1.2427818614624062              2.21319822365629              2.2311644684797165
H              2.505027118899833              3.863913892977107              -0.005623466517540661
H              1.9149898659441877              3.7540796251814452              0.3733196743404666
H              0.6323936599288027              1.0797943855259515              -0.3930301999500605
H              1.431427802262575              0.8209191824771321              -0.4157996454485357
H              -1.4623628345229722              -2.279972752287762              -2.3334834105584052
H              -1.8818827185756701              -2.771052891222541              -2.036274475149544
H              3.7250747093569987              0.9495489664400403              1.452855611852287
H              4.313463180225278              1.1534094853291843              1.0961584453192206
H              3.5385616183479423              4.20149337233312              2.788141955216567
H              4.314811170296535              4.310749330179824              2.9705159563748875
H              1.89496695976166              2.036103912299719              2.801614733833083
H              1.5794956442042607              2.2731262398260643              2.2262379949770676
H              2.471261846307068              3.999327639269729              0.38156685215523534
H              1.7703020636900564              3.9965087750998998              0.1183377461449673
H              0.7161324750937458              1.0156559923184023              -0.7678208837097765
H              1.3653556585736937              0.9656512224940423              -0.3787224679717686
H              -1.4793680809789231              -2.1432391504366763              -2.3843862571040764
H              -2.057922060766315              -2.503044263992484              -2.0775870005854182
H              3.83056763731843              0.858572835334766              1.0618253348830404
H              4.308566979545433              1.3568018316656159              0.9022833411748832
H              3.5976665589240056              4.031642226177602              2.900780674208874
H              4.223954463425972              4.290650488490844              3.1747203330634837
H              1.6395967605229331              1.9917531625896905              2.873162724593201
H              1.3696773685037886              2.40085550423731              2.327056065867478
H              2.522301978322468              4.205845626299943              -0.05299388412830602
H              1.8755604912515995              4.026115203798101              0.23371329119526188
