72

H              1.6695356226923344              1.8195795001717483              0.15160091234572928
H              1.2637339166700368              1.4617762812677917              0.6230088066288083
H              -1.4191006273278017              -0.2242355744938746              -2.2437884301938373
H              -0.7677024100361577              -0.22480920175600227              -2.1578098730474746
H              4.399404239326724              1.7166566723567689              0.9448603105271992
H              4.673401071359166              2.298298814086829              0.6375012413286109
H              3.4188091347298397              4.081338307793446              2.885027490435185
H              3.8863276886363662              4.540576227510375              3.0525412586974556
H              2.205866110840072              1.5993859046267602              2.835573668090138
H              2.5267701114703587              1.8170495589533415              3.5321151312415435
H              2.5268251059831233              4.194267506587225              0.31010715747719914
H              2.044019949085163              4.058017229654948              0.8022198993622435
H              1.4612002795000336              2.064488668562894              0.22413095581148634
H              1.5217144136819927              1.3933470693547763              0.22429495028839622
H              -1.3020308210082274              -0.3138995078202186              -2.2241260562123366
H              -0.6412035086161879              0.08654146728541426              -2.3357627801739116
H              4.4350275460901685              1.8986330537466456              0.939688047876914
H              4.270642989489133              2.3718437718796324              0.34089688604083845
H              3.4386796796167403              4.489085161309198              2.378595196857173
H              3.9389199172137688              4.536155671154328              2.903219522665134
H              2.05557344754047              1.4185934736738897              3.1418394877210716
H              2.7051602102134606              1.7360657849327048              3.401267347343549
H              2.4924736004726253              4.1771250634998225              0.39805167334533087
H              1.9961489719187704              4.304595508413978              0.9169824701744735
H              1.6607746775341161              1.7163610624676229              0.15568822581746092
H              1.1814751677246957              1.2604785355316177              0.5277637513071367
H              -1.387080280565516              -0.013613240308424535              -2.2856414039625244
H              -0.5653914797316539              -0.08783905577910056              -2.4647551034542348
H              4.2745591537609515              1.8614321945983492              0.7033698031901134
H              4.291295517186732              2.5968155723625697              0.691878130772394
H              3.427476589921223              4.3307821064811485              2.7158349437578564
H              4.01462571661254              4.805087911797413              2.789140279381765
H              2.256803080586879              1.8216676783382386              2.7282069366400528
H              2.912253862248323              1.6662298732832903              3.00987570365017
H              2.568588980924246              4.299082237578436              0.3418455292387595
H              2.038472946507354              4.523390755555034              0.897799323205499
H              1.5871658265627624              1.7685314294128              0.12790917567618823
H              1.5268068829173005              1.1727018797929              0.6318483125312284
H              -1.003509101097807              -0.09289952233816573              -2.2152633269271274
H              -0.421459443094142              -0.03583593842609193              -2.614012809939029
H              4.5646718992771795              1.9045581380592236              0.6522207960302518
H              4.546690066484822              2.6177941506959357              0.6892493407467376
H              3.6532260305376414              4.051418482161732              2.7120550062520112
H              3.9469523845565155              4.699905363040981              3.037985181723203
H              2.2946557566321464              1.4205716149454775              2.542335281075778
H              2.5235984994767557              2.114506114214408              2.8673387369164076
H              2.529882406964809              4.227534619322059              0.18890844201410037
H              2.1939163506015613              4.160043278227729              0.8588756831991966
H              1.6037099865250806              1.7165685699964233              0.4294010727477013
H              1.6988953994193945              1.046869333679261              0.7022810705842042
H              -0.9065508921260476              0.10551368391188981              -1.979012838386336
H              -0.2139859380677145              -0.007079006880441863              -2.2614632795010206
H              4.4639046175332275              1.8002343998604111              0.4606269744808803
H              4.6738139650774695              2.534592270486712              0.38959387745502866
H              4.073851542524033              4.0165387877677485              2.6407335938278993
H              4.019624451554584              4.4822489137801504              3.2454318707137046
H              2.508477509554038              1.4326969184066585              2.7436452101391327
H              2.5932935713845313              1.9395485341799459              3.1599856313192696
H              2.4284864265644486              4.165214979542664              0.23169070454984336
H              2.191178067357708              4.171766304843169              0.9625771039312931
H              1.5745932612101174              1.7823124667893266              0.30459143427235597
H              1.4977361744696107              1.4532385949696143              0.914669677628668
H              -1.1713469107997896              -0.05234138550890181              -1.9886690676017273
H              -0.4439334888831494              -0.133068235936735              -1.8031974255762242
H              4.462720157900706              1.6792421086277867              0.40160141868171395
H              4.712821743652518              2.4039670638155437              0.3412409777763228
H              3.6927512611855873              3.9076455389614786              2.8759127276896335
H              4.146914282881342              4.475218736828417              3.124407279083896
H              2.2058325333423907              1.5312883261218617              2.9649230607149466
H              2.758161642265162              1.9048556518222761              3.378342141863056
H              2.5524640759675674              4.327919540933183              0.24764075213513706
H              2.117012694331646              4.120003339312087              0.8300296240671039
