72

H              1.3681705801666386              0.963272707208141              -0.6506263526039507
H              1.2703293478729343              1.260740814789561              -0.012510553213261598
H              -1.528611817479567              -0.5779711861143114              -2.3872485612226053
H              -1.1190726118236263              -1.137030032277752              -1.934297119832058
H              3.8951305771982736              1.7518445085202567              0.5844807422691964
H              3.9816917400751253              2.4209358983152556              0.968890891486796
H              4.368841463141679              4.398212054494841              3.0434487349591746
H              3.8693932740157235              4.318229382100277              2.5645992658409127
H              1.6854925801624892              2.5032166293205624              2.595733614331428
H              1.723130194673726              1.7764813722462038              2.648073674460664
H              1.729370015410312              3.613618503212325              0.3776089714618421
H              1.6439124017372093              4.073150418377988              0.8991624415758704
H              1.5439805141083522              1.1297126088081204              -0.4775417496250996
H              0.8651920244635596              1.3286889604604362              -0.21401378076677138
H              -1.4564150647997796              -0.8265337144220405              -2.3070018672910493
H              -1.1342465954981396              -1.201164507568077              -1.7483248795421942
H              4.362291754800468              1.6799358054377596              0.5664402719332632
H              4.492152314983874              2.3833988913900646              0.978619715168702
H              4.3253487344991495              4.299608035035848              3.0206336374526725
H              3.759843270686575              3.949513512529169              2.770329398785932
H              1.4385270115717979              2.5417618388060794              2.633659866694553
H              1.4428655055331183              1.7246229651902187              2.6928451315297512
H              2.1279629209227306              3.9550556075065875              0.3202144442428128
H              1.5263709940080203              3.9800030121276415              0.7796879092656159
H              1.6560054867760543              1.192930332357468              -0.5652492041892605
H              1.0662436303927925              1.2853892544953762              -0.0364395050033065
H              -1.5120290281601667              -0.9715147526814705              -2.3665890176718714
H              -1.2045449006878244              -1.1346873518485492              -1.6968172797852599
H              3.9386712860773816              1.596947961714484              0.7509629598242313
H              4.496332161156143              2.10876910942349              0.9405581835685105
H              4.0956218117422365              4.190082661129315              3.240868080178927
H              3.793715564821734              3.9549061752811183              2.6052917715453123
H              1.3402456028530314              2.5227884324198113              2.7265580992430802
H              1.6267549033506934              1.7400847016359202              2.9167620642212486
H              1.8599141029610755              3.733716768977654              0.23265885515636373
H              1.4765514438780052              3.8871796768715554              0.8140860389324903
H              1.6257944401031277              1.2258005771312679              -0.27988975433086194
H              1.0396742924816613              1.1660925626085648              0.10384874026343735
H              -1.6430764589923101              -1.0646894263241864              -2.3659807167240365
H              -1.4993831496600936              -1.1423140702866217              -1.5317820951897791
H              3.7191901306153143              1.6042162337883252              0.9049288573556493
H              4.26614048195025              2.1164541985463425              0.7445527149616367
H              3.8367253514739885              4.5940302721393325              2.887042423072516
H              4.027951306656913              3.9913688852964557              2.4621480051977804
H              1.433491590136357              2.298371285853015              2.709646383744034
H              1.6191816491559081              1.6811542933528945              3.089611689989285
H              1.9598939745836694              3.8656730698948674              0.5938130730021096
H              1.373664581483627              4.2318897400801685              0.7024551811123911
H              1.5657118390560933              0.7377623610068552              -0.3548636105122777
H              1.0588382473877551              1.0726584329637812              0.037247850839333616
H              -1.9478271576282928              -1.0189482548303226              -2.5670658696544666
H              -1.7687729351246115              -1.319205039326729              -2.009174295695214
H              3.7846019162112543              1.631664628202907              0.934190200796019
H              4.303030279466567              2.066251992309373              1.2528884514312313
H              3.761516086681648              4.75265283281831              2.9616699241135804
H              3.5894395995426134              4.1465232043628335              2.5392479965036974
H              1.248667413630932              2.3131192527585016              2.4229092878926535
H              1.6997534216299157              1.9151178438158272              2.7747716036774004
H              2.0415451370604223              3.8243273669081845              0.6087188748909763
H              1.3105542426298524              4.028792870497179              0.7875201293067502
H              1.0295359553492989              0.9392700198481022              -0.6136408924354323
H              1.4089474305807808              1.150907134401812              -0.024292819929000373
H              -1.821658383821411              -1.008666601353878              -2.6120635825948195
H              -1.2505089328834753              -1.0709834502471702              -2.214612097485696
H              3.883148341097987              1.6436173686671403              0.9698170149039356
H              4.387304910271513              2.246589955453053              0.9338946576308325
H              3.8801369781467483              4.623018822755178              3.0492376375810974
H              3.8140159579484902              4.441445420434544              2.340725455755811
H              1.180178894077191              2.0276563607729474              2.375746887370755
H              1.760301711774374              2.2288381434905014              2.7195095440554486
H              1.5494147117338621              3.757539232330583              0.3669267067620904
H              1.5583180678826825              4.079875591470177              0.9965637620595955
