72

H              1.1496666199440715              0.5423324611525802              -0.5323499311170029
H              1.5203145280657773              0.8807995367792363              0.07497725007822346
H              -1.1298411060936886              -2.691891649267831              -2.060410115287667
H              -1.7556712032440973              -2.9481917514504876              -2.0917993247119426
H              3.9284879179402523              1.0526629775705816              1.5290013396772026
H              4.660987927510919              1.2454150554228396              1.5476865320878512
H              3.7144554408115678              3.509958956699284              3.2363240191711946
H              4.202127663710412              4.047005606596492              3.0375069579936986
H              1.3933336715446423              1.9060081202188386              2.1896341670051527
H              0.8786807889691314              2.409394262362838              2.43809658315316
H              2.656402028743305              3.876785941558231              0.008107828455553943
H              2.081468573418904              3.663759720427237              0.38024314593638764
H              0.9467847143889118              0.9508734783296621              -0.5659984848566999
H              1.4259657511597257              0.6435872259367015              -0.07219757281985538
H              -1.407794004733238              -2.3267161334043154              -2.207274175245219
H              -1.775697197757968              -3.041444345183677              -2.31759546138405
H              3.7618794915002036              1.1143400886620407              1.5122997927382553
H              4.444807285767611              1.238470729409803              1.1802812864669707
H              3.6354712173251547              3.8040377017812137              3.200235033311776
H              4.15876335120941              4.307978976916102              2.9376530956398765
H              1.756397664994794              2.0093860006314945              2.6232143893558817
H              1.1200958581046674              2.5588694723388703              2.4179723671134585
H              2.625577456645525              3.567192850794868              -0.008896122738271738
H              1.8941371445876733              3.5803021804806123              0.011139561283448386
H              1.062139906685298              0.3520613660027538              -0.49107285181691984
H              1.1437952888373095              1.0172386416591401              -0.2184240282467604
H              -1.2072582037333393              -2.439920488026581              -2.406321241440706
H              -1.9188464342636404              -2.8219564087437967              -2.372101932275874
H              4.029563490597025              1.3000935755598793              1.4496501729862243
H              4.555095422153315              1.4787712642569133              0.9560559654993308
H              3.6102552897314224              3.950371987445535              3.2118291002624435
H              4.225027985572707              4.180623689348204              2.893741694367144
H              1.7763092265108082              2.272084678207133              2.261103832954746
H              1.1915972420177972              2.4581257867301627              2.5616901714466858
H              2.8348213215390543              3.9315647983690245              -0.11543757793480189
H              2.188324114439351              3.773817618491284              0.2096315648232697
H              1.1534717783074846              0.6808724480513558              -0.6806900674882037
H              1.031779546465484              1.0464492201417437              -0.06657593511089378
H              -0.8626615919569949              -2.4125476680026057              -2.2502107161301845
H              -1.4881680228914038              -2.7390945626315184              -2.3292273882627876
H              4.216993389630351              1.0640534140783562              1.6160708369135361
H              4.553458555894029              1.5313178432636785              1.026230116085958
H              3.954113445785385              3.441315685995499              3.3119252974906166
H              4.033507357641794              4.121853099336094              3.037768724473595
H              1.377899448960905              2.3606156524124513              2.8415657017015907
H              1.1531114503477087              2.5094341114322605              2.1371170045436094
H              2.8021722268804177              3.8599159971786365              -0.13207926433752162
H              2.312877958902802              3.5574952869624625              0.33962948350445216
H              1.1156641693409974              0.6750719659622869              -0.6250252451617119
H              1.4136606717669795              1.1429374279411808              -0.1289751777506556
H              -0.643214517811684              -2.5774480614264883              -1.9334536885358633
H              -1.4235654415024455              -2.4609062261916272              -2.0831545777651725
H              4.011753216275026              1.308594954795332              1.6225032687917371
H              4.202331918069157              1.5513334730420698              0.948704887076344
H              4.129118781087302              3.72103871285481              3.367015778993857
H              4.446104613361567              3.823202258843391              2.6229704767977724
H              1.7944965946042353              2.360811036516936              2.641419683614374
H              1.306372142977435              2.326122982795828              2.0639532796778837
H              3.0395635874487037              3.8514148010808467              0.25043764016067277
H              2.3380539298094503              3.6016858979371245              0.36636010474175984
H              0.9941054761662562              0.7556483673454871              -0.5181754087900157
H              1.169307727641337              1.3194510230687155              -0.12102878262154355
H              -1.026675006564832              -2.6714585834300495              -1.8474529587728072
H              -1.761876244620926              -2.558950126794025              -2.1286331996021026
H              3.588855093266743              1.3553609100788584              1.415115035773513
H              4.295274129406408              1.3295329111970187              1.1942096669777313
H              3.9758376636127917              3.57817395529119              3.41257999560007
H              4.447141110722475              3.8047852014761627              2.928823728805298
H              1.5215576496898633              1.9410349186383151              2.5551765914756253
H              0.9883171429125946              2.2734049797932254              2.203050805927003
H              3.003036635426465              3.693081632479507              0.0589322626952637
H              2.3295475355294584              3.636296856062956              0.39279690207901224
