72

H              0.9476322792685187              1.0997401004644145              -0.46823058403159895
H              1.5593255554187098              1.173216221869939              0.009399330779515377
H              -1.5813531293006262              -1.3975116606116909              -2.1926802644736694
H              -1.8610972858794              -1.5902660600227498              -1.5824036401006036
H              3.388151341631716              1.4849303729056507              0.9790828952039506
H              3.9317496915874655              1.8204447035768352              1.2818737272389638
H              4.22281391222806              4.418698124757922              2.6952041530476554
H              3.7929268835107885              3.7522846158147427              2.7826374804869682
H              1.2807651031036862              2.352537331781702              2.547669792063575
H              1.9510816809227651              2.004373144224136              2.3018273800854443
H              2.1749351938694295              3.8735755915674566              0.522003766057537
H              1.4985822753803584              3.9632195432481927              0.9197626587688796
H              0.976043339895554              0.838155589563058              -0.5516208415135866
H              1.3607238007843099              1.3264733333667176              -0.2087630153050222
H              -1.6995301926630975              -1.5365323550392247              -2.4398852033237177
H              -1.812614600990837              -1.5315921455610133              -1.7817110262541016
H              4.026135232617215              1.3155641242302634              0.8342388079848113
H              4.3544767596110825              1.858906597433022              1.0860853172757656
H              3.923688353773375              4.6756157232321325              2.448963541312233
H              3.6847421420902937              4.1474579231319435              2.9238339449969635
H              1.1164264312925745              2.3251814677768503              2.698007701060446
H              1.7337995740503425              1.8391266976190235              2.514426173883121
H              2.2992512271514096              3.944704210696561              0.30402364223452355
H              1.566185191777814              3.9909224996060972              0.48376722562061514
H              0.6604718938053983              0.6386875884252532              -0.3399993152341441
H              1.3047031597126328              0.980503104634429              -0.2733821777762061
H              -1.6490150672179604              -1.5095984698423157              -2.783624072914266
H              -1.6079810230397817              -1.551487982950789              -2.0447928315394592
H              3.869570870435537              1.289354895151901              0.7490517123778669
H              4.317898157857301              1.821732215573127              0.8222444847776436
H              3.980047984436068              4.696721061689161              2.7470684266631666
H              3.465261440318341              4.143666814387449              2.896922887231259
H              1.2043157642243283              2.3033964712647585              2.6434825196411627
H              1.8872784666214848              2.1016336555844175              2.661691448426588
H              2.0434042148321376              3.833115596826369              -0.03125212365863247
H              1.8011378911656684              4.1503608992740695              0.6418243590501084
H              0.694328981952931              0.6047542336809382              -0.47337384946888544
H              1.1686612748130523              1.0385058841286279              -0.013614571617574752
H              -1.3203196301154092              -1.410268392479536              -2.4373520597997724
H              -1.2386143120676272              -1.7116250337607677              -1.8390107038975398
H              3.8522757149169435              1.379694518092886              0.837102556143384
H              4.057598759927178              2.077622057197012              0.9557457936841881
H              4.259713773727259              4.45000303307666              2.5546514643005755
H              3.7684085631881463              4.119398007307916              2.9486992298022674
H              1.0744319324553768              2.3704848355547252              2.9166586115825157
H              1.745581295498087              1.9401349998139574              2.66160791145829
H              2.2192894187764125              4.03023801302922              0.32602140040911504
H              1.6650827309816543              4.14772583693694              0.8316172516533955
H              1.3179307865702161              0.6372344114744164              -0.662706289122772
H              1.026320313416698              0.7656654023835854              0.06566496651999529
H              -1.5443445090177501              -1.2648834329348968              -2.2084431449971045
H              -1.5046566153054985              -1.9533385456141417              -1.8498111033752165
H              3.897520686942913              1.4537842144277957              0.9374190893263548
H              4.169799277643213              2.090079778317577              1.0992927958154288
H              4.220147771739729              4.3312996014385705              2.4282833571976097
H              3.9368925268867296              4.101743512380274              3.036974323254015
H              1.2262242379820147              2.3894951458627376              2.9471221794690385
H              1.6963576957898823              1.8037656995251938              2.5823968523657674
H              2.401142036186001              4.054084505040418              0.750209840081686
H              1.697394111244735              4.095565222770795              0.7539765038853375
H              0.8344462020050917              0.8371997617441485              -0.5046609403478447
H              1.2356675408777007              1.0020321067362599              0.14735580285446775
H              -1.6782239846237628              -1.4575271089652833              -2.3461687331791876
H              -1.6942056953175504              -1.6427430725258023              -1.552131658381699
H              3.5722949758374782              1.4696539148612178              0.8000769545572958
H              4.1375804375637655              1.9552701635270353              0.9779761667297485
H              4.095182725893276              4.379385836363209              2.646685525927038
H              3.8711834017381794              3.716184315881152              2.776651862350602
H              1.5225915821021858              2.086504421789258              2.8283192768647156
H              1.4951709678580187              2.1769662990101732              2.171273656079391
H              2.2207494678346755              4.197575753114914              0.5984690417579908
H              1.6041563414067397              4.215008535962323              1.0092372812283772
