72

H              0.7306542974192337              0.9648092730846486              -0.48668229579073147
H              1.4979145715346018              0.9090658684341069              -0.477500075111188
H              -1.3728225688587192              -2.1121872024904413              -2.4311617691593836
H              -1.726628147032931              -2.370025052128318              -1.8845036152347274
H              3.540508803136763              1.074141656111973              1.203484254815294
H              4.233162217896812              1.3622981654636237              1.3279446198742872
H              3.681475128932136              4.059685901927573              2.4725835374279477
H              3.7181139608148825              3.987186744362921              3.2165209379169952
H              1.3411085139099017              2.0107850243343903              2.6711782500625656
H              1.9506300648762283              2.259877673721077              2.4301208919941817
H              2.5276414917550944              4.026762683230249              0.26665903345063424
H              1.8412283668737217              3.9362257773115976              0.5592347296682496
H              0.819910453184356              0.8431437575498297              -0.6573396376974897
H              1.1678833662914547              1.2778456835405627              -0.15087896070869544
H              -1.5546606782972234              -1.8778709826754294              -2.367103724531955
H              -1.7360386968943808              -2.410044825284357              -1.8350469765977777
H              3.53244435806266              1.0309295837461758              1.2318610052352452
H              4.025815755722867              1.4579629495924311              0.9882075990733021
H              3.619421047065916              4.403270668964756              2.428508248759968
H              4.135100148490996              4.193225003038083              2.942435566857726
H              1.792538612112402              2.0105033168205932              2.975328154881422
H              1.6726861688487522              2.136997651922455              2.2354113948746033
H              2.3523474644558737              4.1518388815883736              0.5748550413263422
H              1.674981338717936              4.146365129545741              0.4709539258902089
H              0.8718571130140279              1.1969323707724064              -0.4584260811142565
H              1.3721579107402453              0.6544523859726494              -0.4872083472892069
H              -1.6398745860188904              -1.7821631627252956              -2.3544248353888695
H              -2.096284194302149              -2.2439980691639287              -1.9337479521028358
H              3.572892919273103              1.0008213909479247              1.0332999090669215
H              4.059002897133332              1.6016019181257062              0.9650410201329755
H              3.8170086844412094              4.3520451983488835              2.5382027023330407
H              4.125479919875909              4.1424616885629835              3.1337984759649564
H              1.5726609410049293              1.9221844839534494              2.869031962669421
H              1.8131186337637133              2.2890735502838426              2.182199422579288
H              2.443927160049806              4.1555221431628375              0.3412533326008535
H              1.8058174668467173              4.330304406213778              0.6069437354790858
H              0.7132004430089425              0.9550389449621655              -0.07161558989923784
H              1.2684466022359993              0.6657597321588913              -0.4506976649035112
H              -1.2719154149472693              -1.9064945369033501              -2.302556810668678
H              -1.7316268539603323              -1.9576658231186168              -1.7456727651085198
H              4.162178705979894              0.9204011750708686              0.9595290285305142
H              4.184519500891515              1.6685930893405339              1.2076356039883553
H              3.9869387889382555              3.9199886317754484              2.54046973625007
H              3.9198033271111123              4.203967662096958              3.234554957174797
H              1.301189660813783              1.9611656817383174              2.8884228696376613
H              1.4403019741432352              2.1976728332201545              2.2914037337425097
H              2.348647457189075              4.407092343569247              0.03811238046366744
H              1.9597734343723494              4.004537736802125              0.5479289164079544
H              0.7149233870175861              0.7460740175935392              -0.12629127737639337
H              1.3540714682895585              0.9978709625399454              -0.12273978980170698
H              -1.0721796444275233              -1.8171836279144138              -2.2668169812605057
H              -1.6580353674112274              -1.887822834723642              -1.6772266421881976
H              3.7908190089384566              1.1143158403687554              1.1459436286413534
H              4.140815587896115              1.740588784543049              0.8936172002534074
H              4.011637947478748              3.9162539848358104              2.431194821607398
H              4.034177468550811              4.205507405852183              3.1403737272845107
H              1.5551137996149038              2.263491596142251              2.934402732752811
H              1.9589414998646475              1.933927129942399              2.3838515990710567
H              2.6731340612554777              3.9328011484822794              0.06253114969269251
H              1.979815401572304              3.866960723625994              0.29185476057867416
H              0.8384673529264031              0.7122107729502657              -0.22708804748656153
H              1.2273741565009606              1.2216564580064158              -0.5525412556585537
H              -1.2209566561896485              -2.1877503764336548              -2.278924740823683
H              -1.76211714249329              -1.8562737200052517              -1.7440233812460773
H              3.5903814686975903              1.1982359286876214              0.9324342149758234
H              4.187938896967482              1.7361470738978397              0.9839087863199731
H              3.606786253157009              4.001939592806819              2.448873747775484
H              3.9905806073244094              3.9464158347359977              3.0873330886386006
H              1.616310100067418              2.0397095678239485              2.96475458582921
H              1.8700949314019586              2.2062488899754453              2.181934466255976
H              2.8059778374099147              4.054972859283386              0.11032627363228575
H              2.0848453306305665              4.014561133175185              0.3730428623126057
