72

H              2.0419100205272147              2.2576801563428446              0.2511642982747587
H              1.8276066909029332              2.0981925367082943              1.0092780859537533
H              -0.7154849737324929              -0.10693321421957068              -1.6407038184258482
H              -0.2103951245222529              0.32533303668450003              -2.147087395290137
H              5.041247480389472              2.202970040588048              0.8432148025589005
H              4.580681504713548              2.236916040276733              0.17846027386891455
H              4.060008312432419              4.72805827326264              2.9439831122519653
H              4.255589313161491              4.057651835320439              3.1575508983379765
H              2.7298931503658834              1.6534362415789494              3.5615713564225606
H              3.443997774065744              1.6457994598723846              3.417336754026597
H              2.777642841482666              4.439073090960803              -0.0014351164222011945
H              2.638862258247306              4.642060705100809              0.7287805751275364
H              2.3581483546781876              1.9250592013372567              0.31865274264489
H              1.6313820608766243              2.040373940864055              0.43135374658787795
H              -0.7393423165866826              -0.22668032114017234              -2.114772356745357
H              -0.2950326266102018              0.3284823245140416              -2.2949630711176905
H              4.558863397385192              2.0959871486334154              1.1718314921811823
H              4.223684588924017              2.439418987208088              0.6147331763921937
H              3.783717467301676              4.673328548860757              2.829569726805226
H              3.9212522125508786              4.288622005878461              3.4877439439547273
H              2.7654706556901116              1.569480247207878              3.193006266949584
H              3.418904064667346              1.9081850144907395              3.4537971097852713
H              2.849574124013325              4.36957356992243              -0.10881074951592766
H              2.4896819860471036              4.647020605968262              0.4667124293264518
H              2.252850758686699              2.0680048105380577              0.15138539921977273
H              1.9061217761040294              1.6235738523748742              0.6488338431181986
H              -0.29592788714650436              -0.2050627583845687              -2.2284440965839654
H              -0.008979470106806603              0.2866962034704393              -2.5436062275592977
H              4.960800153793555              2.3689309362287134              1.1937783918114238
H              4.313097409296488              2.4790939240101064              0.8145891205992217
H              4.125130984557252              4.935990664093275              2.7091185088267027
H              3.931102034611059              4.346486820254132              3.0256729869708323
H              2.987567821309143              1.212139188355314              3.3015545398948354
H              3.0566585323482514              1.8697524257085874              3.164887643878755
H              3.074527590478416              4.470287778014114              0.16900436781586953
H              2.5233233653180775              4.682820461084226              0.558873209699678
H              2.2102338565131934              1.9039646605620741              0.39028583240717674
H              1.9530533674596064              1.3882387319353076              0.8083870657612006
H              -0.3787097793718631              -0.019765435776743587              -2.008066610405044
H              0.20798937935259537              0.37646331700765956              -2.417617642257024
H              4.929078619966802              2.1468023472020783              0.6911759255542725
H              4.5668770611076175              2.7739523698840585              0.4261229517235742
H              4.269374272175359              4.664115293708833              2.7175479297090286
H              4.0592839796835065              4.410868091726982              3.3574231485333783
H              2.9534966374025187              1.4556277730712475              3.220903075703134
H              3.389847208021536              2.102525823676612              2.9956864018719984
H              2.881759548385743              4.675333029728827              0.056447890128354945
H              2.603654714051953              4.338704256592052              0.638565509578164
H              2.3951245304847903              1.7237359445691707              0.42499237946817187
H              1.894549072044196              1.9687307797929567              0.9575584210866274
H              -0.46926544020324457              -0.08817608065352638              -1.9061912283160396
H              0.04704020704829685              0.03336544707786702              -2.3220367738762975
H              4.731339479065743              2.096181938328972              0.924567674869033
H              4.871594597708269              2.6088908115919143              0.41954267216920815
H              4.321766905614481              4.2617555674970005              2.902414812797571
H              4.087205177824872              4.257803752437498              3.5764368117000873
H              3.0829636754221323              1.3468123626081492              3.223082666180745
H              3.056489834874688              2.1221680193728845              3.1171361133312714
H              2.9251841931627935              4.673776123829358              0.01776729240330165
H              2.5715675599584653              4.285056771547813              0.4737891896895014
H              2.3078837794889404              1.7349977859835461              0.41477864836924444
H              2.146750531314171              1.8454908316800913              1.0803695555858275
H              -0.40960168182482126              -0.035131636379528625              -1.6222795328466557
H              -0.07688061986026516              0.1523672101988318              -2.217851254081411
H              4.772026046745229              1.9859064297211286              1.0396415510575745
H              4.623437420707888              2.5681325415223366              0.4816382433473569
H              4.4698107938346885              4.300353709540255              2.9930242003092293
H              3.9531134134783623              4.053807731162533              3.4576473386406574
H              2.7897816474093653              1.363538457285912              3.429610014838045
H              3.102394789881014              1.9841278525462827              3.3230949005323107
H              2.7835147305697943              4.47268183168504              -0.023433114527360792
H              2.6391343401116116              4.085869756528212              0.6285329773885332
