72

H              0.7849271503989008              0.9805232601174092              -0.47039834344632797
H              1.5146270341566297              0.8431819820810246              -0.5279654240275752
H              -1.3146465421413893              -2.054603951089094              -2.4351839738578094
H              -1.651234712005274              -2.356162958746357              -1.8817724570873595
H              3.4867962419593987              1.1185822565363517              1.2035009809968626
H              4.242671648908825              1.4061210248625549              1.2834482195187877
H              3.7612399091865223              4.091978781042756              2.453434644430391
H              3.7384464334284884              3.9875789883466943              3.1854867375437963
H              1.3418214796140002              2.0498526410503555              2.740714183988529
H              1.9886274006243583              2.2408289834095947              2.4179036111240793
H              2.5018835989207986              4.012987884493647              0.2804998293300775
H              1.8677315421132508              3.993595904295736              0.6176284130312973
H              0.8423211786313015              0.7984715907541121              -0.6795507170040529
H              1.187432291714119              1.2393726676221688              -0.1790314399773998
H              -1.5275184837568547              -1.8284289579085156              -2.3686276778021145
H              -1.7378316698600267              -2.4228010139623395              -1.7851352295455352
H              3.572793870156389              0.9924758142847917              1.1790717688893888
H              4.028286187530555              1.5859157897085956              1.048493240191923
H              3.6174874975131854              4.341406349737229              2.430575302202429
H              4.172054510304327              4.2305259189994535              2.947781478323756
H              1.740153872537305              2.052599123964475              2.994893438469338
H              1.632666713416025              2.0462992492514473              2.2894936108718844
H              2.4150050146645374              4.1828272251174985              0.6352949233993458
H              1.6990501980789716              4.113337406681572              0.4678895209748938
H              0.8934563779639132              1.1160863475852625              -0.41970916230740885
H              1.425753662051346              0.6813602468092558              -0.47216512460517246
H              -1.6448842332996154              -1.7830567146424547              -2.382665182382315
H              -2.08979674915185              -2.2185911887536607              -1.8711974098843371
H              3.5286729298433976              1.0403684069130272              1.056550487328292
H              4.060729559416499              1.5938971799848347              0.9283992447652828
H              3.81896981465924              4.372305073426746              2.5141374963535226
H              4.126166837533732              4.051109213630986              3.130109353233865
H              1.6160308039931777              1.9371704727217451              2.757112503394245
H              1.8377786148464965              2.287989129223654              2.187179589628309
H              2.4459699219069906              4.220436146892156              0.380919537228419
H              1.7921852170201844              4.333108855870517              0.6859718349403761
H              0.7117646964846328              1.0231257947581809              -0.08298864640049387
H              1.282731308221495              0.7812333395701418              -0.42203442901991484
H              -1.286727433186511              -1.8706986136008035              -2.2180558541516526
H              -1.754654985791617              -1.9164716467033684              -1.709299434950908
H              4.031673892424646              0.9988352170884952              0.9671911339719961
H              4.107183851160677              1.630398742045624              1.2366269564019392
H              4.033601328217991              3.9205620977046625              2.5157029647642233
H              3.918475322895069              4.1484533944973              3.2436174073360915
H              1.2373276588836761              1.95683463944993              2.9093995242688493
H              1.5282821756670693              2.188254796664821              2.2594493188987945
H              2.317250553606976              4.356257541946902              0.09600992419511438
H              1.9052580134157533              3.9756790888237425              0.5601192329190394
H              0.735686414200964              0.799038518851876              -0.24493608797753422
H              1.4050790685620644              0.9833375156825769              -0.10364071041234998
H              -1.1723138100598107              -1.8378975928948267              -2.2546677034028915
H              -1.698804291115312              -1.8806177075717216              -1.7332878155489277
H              3.859822180243763              1.095351969301422              1.1530714624973766
H              4.208539477340128              1.7537872404571553              0.9347883647821376
H              3.971814617167991              3.9819445007678858              2.366285561459984
H              4.01325297489989              4.256900133828069              3.177247021482258
H              1.506171875331188              2.207702395645897              2.8905697694022408
H              1.974379216653386              1.9562094437669895              2.407924453513943
H              2.707910441290035              3.9308364490166214              0.09500136670714056
H              1.9352330771828536              3.885574453898313              0.22697096248093784
H              0.8422208983149247              0.7129538023251519              -0.2564670701906679
H              1.2019138690832165              1.2080267964757676              -0.6298564613778077
H              -1.3035358973511415              -2.136317053514129              -2.330582358732303
H              -1.705092678178738              -1.8495459869704953              -1.847531630623064
H              3.6707901684447246              1.1892645721457407              0.8825441744674121
H              4.1592913017302955              1.67714723829001              0.9166088264111621
H              3.5741976335729015              4.058575090702725              2.4326413967704226
H              3.885339023315949              3.971210010358906              3.130791296937761
H              1.6450077877733384              2.0419405648496975              2.9831693838741735
H              1.8034165722739481              2.249177553549049              2.2008276358614007
H              2.7199919680076565              4.03432396402776              -0.01087691993946537
H              2.092160613435348              4.024846551843009              0.39249784994319176
