72

H              2.1703181380725933              1.835724461422423              0.2445591585103496
H              1.6992126130332321              1.9554148264155453              0.8438269532447626
H              -0.5494970055795642              0.14132973492672363              -1.755724494806265
H              -0.2706186793041725              0.2547736325640803              -2.298696423626276
H              4.4081821639836605              1.9470156222526518              0.9983898784017828
H              4.391253066033297              2.5170083098591776              0.44411671386766705
H              4.254768118914612              4.5357513671998815              2.8141639049898144
H              4.009047490142825              4.02259925974052              3.3216462556406467
H              2.8108386442652553              1.060595829899756              3.391251057249431
H              3.2371882243416112              1.6620787853438694              3.6025932722868257
H              2.4234881906577166              4.601326887581642              0.04028456960389663
H              2.6271002221032638              4.5642897184243125              0.7315831376112023
H              2.014259297218226              2.0750127229497184              0.3140014493927874
H              1.76953781638186              1.8037111389959832              0.9386059151855296
H              -0.5241127616802288              -0.03682033641571735              -1.8801910651035159
H              -0.060167635499103665              0.5050748612536943              -2.1978915787909403
H              4.915669990740586              2.214005278017196              0.8301283255725747
H              4.234313153235133              2.493397266353578              0.5892897914196682
H              4.1043077398710786              4.68193202540088              2.726983042951773
H              3.937913483063265              4.177990641800531              3.237855565261735
H              2.9565098592475976              1.23798960276208              3.2638991278826888
H              3.1342722848057147              1.964074195143551              3.3166522462038093
H              2.99509721758987              4.3241418166159304              -0.022919718716453
H              2.658387797829765              4.613553858888406              0.5675887457242343
H              2.1833764372435525              2.1085157200681577              0.4041053203762439
H              1.5698848457817565              1.6405926597704295              0.5102163275497188
H              -0.7019270336370259              -0.06299159164049804              -2.3359713327695695
H              0.0053638571012205065              0.27547439105468946              -2.2809568411880785
H              4.723712116613666              2.2436535620004907              1.058579413190122
H              4.553458924042641              2.4955734737375344              0.31042079232721553
H              3.830341512968877              4.5100205760461              2.7627188038759183
H              4.00248628471678              4.530296910605489              3.529192754366073
H              2.8647375434366604              1.4898250043526975              2.977124750075921
H              3.3044337919202              1.9987053714228238              3.344163276641135
H              3.0793477803128426              4.523028284792532              -0.0515915266428735
H              2.5674970863625632              4.331935783735511              0.4782154671210194
H              2.3763685023123386              1.8946087107964178              0.2643621547490485
H              1.897680934359563              1.567909856025275              0.7326878187303788
H              -0.4515117457651269              -0.2923847676252265              -2.051359367891817
H              0.054072147700016907              0.11140721654588569              -2.306032654663891
H              4.446652262743676              2.0722511120857408              1.0656730799285896
H              4.523768716092338              2.645541872162915              0.5138601304606255
H              4.123779775379079              4.455235432217997              2.753953555707608
H              4.006316983375608              4.493802212613923              3.538959546367425
H              2.8013312113101154              1.4313860751706704              3.4391164931891787
H              2.958152331398988              2.0956915220011014              3.0907991517713436
H              2.770543299146325              4.739952251652016              0.09858833385685804
H              2.67054613176223              4.109111307242677              0.4923789617201107
H              2.1966662844816094              1.7904320284150514              0.24756569855442895
H              1.94890134071212              1.680962083470512              0.9745200934580297
H              -0.7737024099930437              -0.11448302410906099              -1.891396435584727
H              -0.22599033207250835              -0.051497221971256              -2.4285116750503604
H              4.972235192339142              1.9298867489526972              0.8620804358969961
H              4.7443817624385485              2.661993105716293              0.5963433106656112
H              4.185191483368167              4.554126882941247              2.679835446692593
H              4.122658654204472              4.540496604945564              3.437381390121423
H              2.65423988537718              1.5184114691663733              3.247605153149794
H              3.123838339631035              1.994703650043267              3.1929357967010903
H              2.90180986174281              4.579941045679563              0.14864524514648617
H              2.3078146451431203              4.3987995723925195              0.6029059350222387
H              2.09046507850099              2.1558266312639303              0.08625999994029933
H              2.18729453325046              1.7966336588052927              0.7691687790318467
H              -0.9010115515267938              -0.050412066135916034              -1.8832838880923106
H              -0.36137875934041996              0.17359824588838746              -2.4352991260816323
H              4.756856663451964              2.0087776039078697              0.6626774823855365
H              4.511658954672796              2.4656392815308967              0.1733495261375661
H              4.007586304882798              4.530485399022409              2.7385935867568563
H              4.102847215616937              4.191352564572726              3.425164041283795
H              2.469311478474761              1.4551710237037643              3.479164696715718
H              3.27793150674622              1.626725427135445              3.3512838175297737
H              2.660836873472462              4.445478220399226              0.0124176027495639
H              2.2663168981501967              4.328202946730234              0.5927101205197938
