72

H              1.8298727510279886              1.2321759483135524              -0.3950111835744722
H              1.3013860810102789              1.2993627923519717              0.07323419474961627
H              -1.6839884865916868              -0.8411136235234226              -2.336208999517402
H              -1.2939380644485845              -0.7975347447665458              -1.735535611777414
H              3.8003570850875574              1.7717127482422674              0.9012555260568508
H              4.459196497914949              2.014491217884317              1.0494243605451563
H              3.63222677089903              4.134606018206688              3.1480740433292422
H              3.9408185674845937              4.159574400144157              2.4666990302998206
H              1.3658117817551545              2.0627959462638237              2.4919911606556835
H              1.7552608386226196              1.7741803166348187              3.030199786153201
H              1.8208528705939908              3.949551797640575              0.3225503991747337
H              1.3830229210719494              3.9996906579582294              0.9530834048244236
H              1.9266937294639102              0.8512565863105375              -0.42133078029198473
H              1.5109522620351847              1.1836761419374322              0.07573410119348782
H              -1.797000710475319              -0.7104329934201623              -2.5020229349153245
H              -1.2653572125386123              -0.7074187725519383              -1.993974051086417
H              3.894481721010969              1.645474124573132              0.9251574697793724
H              4.3665653069761845              2.2028744964874263              0.8770884648924206
H              3.648739866235919              4.625249776478353              3.03366131378712
H              3.8866253542044964              4.399528319659755              2.364986907377417
H              1.62132447640413              2.137110213410886              2.4397352031481825
H              1.8962374832738045              1.798982625066448              3.0138104708571296
H              1.7771506814199383              3.574790705561525              0.393546952977167
H              1.556268283531189              4.167764088169583              0.773882376767092
H              1.8243458726323256              1.1378859635237504              -0.33870981088180546
H              1.1002388331514263              1.113157217831291              -0.19075318922987078
H              -1.7659266204723771              -0.6836854015494434              -2.676518095818504
H              -1.1342276912918072              -0.7709174753137268              -2.1473627649485665
H              4.0361689161060355              1.7035124003881756              0.6133399773326943
H              4.4289986179181176              2.3512237983355826              0.6730046144660323
H              3.732685020479838              4.681300950119486              3.167074288257344
H              3.745652162318442              4.407116132885937              2.4212412305187003
H              1.5420791969746963              2.1937250699385533              2.238988826312208
H              1.9739987450853675              2.019174987321523              2.8611067222692173
H              1.9557253292310572              3.7752934467366783              0.2837402855163233
H              1.4845151475953453              4.23222712477184              0.6754068048086722
H              1.8185943345227324              1.093198335798683              -0.6272903550590568
H              1.1748620320925833              1.3079188363328023              -0.1705876351917127
H              -1.450110757534069              -0.5920933704581213              -2.448047121577061
H              -0.8515256368993915              -0.9483747572354196              -2.291077170487451
H              4.1124408845507245              1.829181488623865              0.7297439155012214
H              4.356186469304195              2.335947997418166              1.0817708237781496
H              4.0823169667689685              4.152354290619041              3.2397291075802497
H              3.7387614098132116              4.497581276765637              2.636469281716671
H              1.4862149996582443              2.29920084200003              2.3841509254619826
H              1.987239380543218              2.0244636452806146              2.799103787569615
H              1.7986109876257586              3.679072991687141              0.23882801981063556
H              1.6269827851243486              3.862954695500354              0.9272120592507909
H              1.40050459197009              1.4901771649537698              -0.7008091818200075
H              1.7348520779964285              1.3201034672788559              -0.14455034488117355
H              -1.407369974040512              -0.5522430935739947              -2.160155118430554
H              -0.7769314015436064              -0.8679276131262775              -1.9191963370453116
H              4.414933902599265              1.7512095007057626              0.6710281886230408
H              4.322790971427036              2.4583925017423107              0.6542069764832299
H              4.158179727617067              4.164730860889732              3.120377016407704
H              4.067750215797468              4.323596219303816              2.362584092436286
H              1.69085743440129              2.2403281705585676              2.701651501326525
H              1.6743228604319196              1.7349909609834784              3.1675224129405617
H              1.839252691642199              3.7062035966477866              0.3309556495173744
H              1.570921378322367              4.064685049421493              0.9164157771107848
H              1.825151243108891              1.421126870631403              -0.43656231536847756
H              1.3193174728124746              1.1521418775360557              -0.004122320602172664
H              -1.6160916705159938              -0.48164532030935076              -2.250771205754819
H              -1.379757045761296              -0.9914913546534782              -1.7271053835134846
H              3.906339122668894              1.7193459560522437              0.48743820895837237
H              4.336430357124104              2.213767672855012              0.8534951504386528
H              3.9251425422041892              4.103644092999744              3.258570722938874
H              3.975084091915833              4.086759095945756              2.5125312340391206
H              2.005715837347549              2.1677321355412555              2.650201769012099
H              1.539677942206849              1.8342221869566233              2.9403078189332637
H              1.9568681494775122              3.9042365488121478              0.4551927644334636
H              1.3503229613987118              4.172278726885228              0.7606800907791847
