72

H              1.4789202180056056              1.6444725064488959              0.08315045949871451
H              1.4891163174752908              1.1180018338578106              0.587750914933037
H              -1.2465242286747649              -0.09607019205124184              -2.0388135957622673
H              -0.5401822091083376              -0.10318796207890331              -2.2389736481593046
H              4.023919027011052              1.8167564700751935              0.5769071433895182
H              4.332866459548104              2.5294612228170488              0.6311919602412688
H              3.811273684602344              3.961839222960614              2.563446965839135
H              4.066376778322572              4.519449813389339              2.9275211500796643
H              1.8725692580706184              1.7950452888362387              2.623851217333733
H              2.6268478791588996              1.6700048728986392              2.790535233679865
H              1.9771932057619335              4.1515063778794765              0.3410194034435726
H              2.060093429252963              4.342628616639393              0.9973608601833995
H              1.5784844770501079              1.1610816954578616              0.2200612359142734
H              1.359352889934982              1.1961394808301313              0.8988251050234534
H              -1.2768552944305482              -0.017154159408146456              -2.1431424045586467
H              -0.5587427255863779              -0.23749578762977153              -2.10174709218914
H              4.517410554722585              1.7154078132606547              0.4791376917755634
H              4.6793768204456745              2.4469464382861656              0.7039280227925191
H              3.803646544918014              3.904757183140059              3.0272762652706025
H              3.8739127674193266              4.584342853793688              2.8296330548330584
H              2.2670635521881515              2.1576125340352297              2.301328421032281
H              2.3140054542290436              1.6687375794103378              2.9259503482819746
H              2.290053158285843              3.8932577175607443              0.20841703714419285
H              2.10393889927918              4.26288869935471              0.8464464004397089
H              1.491958269600868              1.8714024894473755              0.2048152269869867
H              1.3600386126629498              1.1675688243930036              0.4023697600956413
H              -1.2787958181425376              -0.34562987535783773              -2.383727572354265
H              -0.5654290049656977              -0.20504979681863375              -2.0205741748629866
H              4.456707520561393              1.6814508018538024              0.617067837886328
H              4.9115148502612485              2.260567192221577              0.23019444464703795
H              3.509672555473248              3.932705829504243              3.038162945865746
H              3.966026233314401              4.548278247675184              2.9133581791030485
H              2.2380329079351955              1.836448637053319              2.5108102327883284
H              2.065870993088136              1.9978642533244295              3.2147922673162084
H              2.4043841714834087              3.9888153392113805              0.17180517991931113
H              1.8217074675354314              3.960697683100847              0.6871235260073103
H              1.7062389980278023              1.7558708339695466              0.19049917984390632
H              1.1636395818229823              1.1773553350097663              0.34049212300978376
H              -1.3765496223376714              -0.34609374646735197              -2.332600932400154
H              -0.6843389616462322              -0.41848837334914574              -1.937139338022664
H              4.030945911781783              1.7282417014045321              0.8008294177866708
H              4.500374371374009              2.226798682545744              0.6863913148251798
H              3.5136462127840877              4.07598443959184              3.0059614846603773
H              4.014639841162957              4.587344750107907              2.7652259440743565
H              2.0817511018030332              1.7634424116302634              2.7265789274532217
H              2.361892930697551              1.923366081006935              3.406449961272336
H              2.3502928796676743              4.105648369028592              0.47846330993888325
H              1.704112696461181              3.983764994522426              0.8143686661880966
H              1.4258030089305038              1.7936407788882138              -0.13217793974608721
H              1.1883571422271366              1.328165776799961              0.4301594892391196
H              -1.6148115846915831              -0.4319852158353837              -2.3079354689564036
H              -0.9547842315365634              -0.4540270369431746              -2.251335729297622
H              4.538250508164521              1.6714769222840062              0.7916175792104914
H              4.483826076330707              2.4739093956079925              0.8143873099228035
H              3.3223564615742642              4.454861236776819              2.827818398311041
H              3.982944848882599              4.49660558181243              2.385989992771743
H              1.8916670666884376              1.5796726842153639              2.7743252361166544
H              2.250181433419181              2.0260046602730526              3.1621164920283547
H              2.414320993214966              4.093189857878145              0.6299493480402448
H              1.6943821642934842              4.21597883566772              0.9040660437573529
H              1.4687581074742047              1.8026502525436              0.007120551371851985
H              1.3420810180777583              1.1051869585127287              0.1276133644874876
H              -1.6264335589263323              -0.15698294381932312              -2.3521236214159007
H              -0.9484817073865113              -0.3244973163279273              -2.5614325421274398
H              4.106203242182867              1.7469806762527478              0.7398045048643899
H              4.385357940556202              2.500194915736418              0.688153636944962
H              3.4235346082026976              4.14291076463281              2.6994779134916618
H              3.9586631538128785              4.639254564643383              2.720298598388729
H              2.026860627513688              1.654462727340231              2.3569990937095997
H              2.3902552563859993              1.9991164016064031              3.0587014651984803
H              2.1179857342015076              3.959887884405561              0.43972510640121065
H              1.7343950317287578              4.325337697174095              0.9842690589701429
