72

H              2.534457956532449              1.7716936342700735              0.367200451603473
H              1.9691607588613036              1.8526110447275492              0.8489384726387801
H              -0.44624403993361333              -0.5413515223809257              -2.0865950481451607
H              0.04474524861759795              0.21273920237257188              -2.252968531756099
H              5.023789211455566              2.2853472076433965              1.3506562193386493
H              4.564970924518625              2.4566978380083326              0.7263308530154532
H              4.084254234278716              4.650515582356328              2.8648916325171725
H              3.9505554705918198              4.174177717718655              3.5393014658594066
H              2.737648762263363              1.875191301806031              3.3080366205531067
H              3.278934845765453              2.191476437049086              2.834616372915635
H              3.3392368730798436              4.373751667015722              0.020630123675770044
H              2.5989704744195934              4.311540710575203              0.34203029774917326
H              2.4648289717244727              1.8741350871949904              0.29093916789780033
H              1.8456044342612579              1.7851108480583364              0.8538514669014995
H              -0.39822774809532685              -0.29048959121147927              -1.949493343588072
H              -0.0880782803633695              0.11762555927547726              -2.4275586599514076
H              5.155857167248288              2.2603377516399155              1.0938687802851628
H              4.877310981012138              2.393281877321821              0.48847126245279354
H              4.192435952832386              4.91816305222594              2.8948519421134735
H              4.205806666175329              4.16313299165459              3.1206736142390237
H              2.7400615433266267              1.7764992270358422              3.527751067673681
H              3.347475694964125              1.7489491755708937              3.008321632262176
H              2.923382351784425              4.540175165539178              0.15247616381392962
H              2.494009836904545              4.568469392661602              0.738821157627155
H              2.3430693904779716              1.8882268105035245              0.31598852118186926
H              1.9661519540269712              1.934423630522732              0.8808249805527201
H              -0.422645571346887              -0.1024244175434942              -1.7662902742317863
H              -0.14982360074219586              0.20379099579331214              -2.3610243367003685
H              5.018263401648689              2.0688455449776546              0.8331365962501002
H              4.55862926941496              2.5566282476292583              0.4857155358630798
H              4.18508975779993              4.768808791203027              2.9490032561761823
H              4.094341231179433              4.048472903102312              3.1801626059761476
H              2.967743520952152              1.6044199188105592              3.517293831646113
H              3.3830659228789015              1.9483723297147362              3.0458368728200473
H              2.721040715641958              4.468205220392647              0.013467122509511454
H              2.4706982702720044              4.69198516155121              0.6849449961861186
H              2.301362170221521              1.875141298334326              0.32172401429648245
H              1.8431931449486594              2.0198531342421586              0.8745277919645753
H              -0.36285349421883256              -0.051002933393046616              -1.8892760643752409
H              0.0007867466744255485              0.3119250283271329              -2.52791594144946
H              5.022590451183605              2.2379665756675773              1.2143469490016805
H              4.512563691899427              2.469648526202235              0.7259600745141072
H              4.296360754574507              4.589969579845118              2.941785977834016
H              3.8989375721930397              3.9978358474453914              3.1188132252454617
H              3.263679553064695              1.164896824541958              3.106821205499233
H              3.2332281757656647              1.9214936553476676              3.3786631720249236
H              2.963206240488306              4.277511187735039              0.16483207419623785
H              2.501324124221085              4.6994470846105445              0.5380248623476754
H              2.196481253227283              2.0034995881953903              0.41042556523670726
H              1.9166059711882588              1.7585762762986985              1.0018121125505883
H              0.07142313849718379              -0.007888312468946833              -1.7773083458283236
H              0.251807539537432              0.5808161648585806              -2.1810693112071062
H              4.982611401820574              2.3593443562327305              0.9203865309054355
H              4.435749290310358              2.4696289856020512              0.48030185706211603
H              4.3980676970051045              4.530924375469266              3.0290266328265294
H              3.9583922877015514              3.9188605425959144              2.9994225807638966
H              3.2919706394354784              1.255507312594125              3.4017549596828873
H              3.2499677367820152              1.970413493662173              3.217808463089801
H              2.9064498196800943              4.3762365961633245              0.08252239899355496
H              2.851828358963654              4.299315037805907              0.8032449548685482
H              2.240493984767556              1.8186345564546207              0.7545213818550661
H              1.5232204289917255              2.016892878568157              0.8463553698294302
H              -0.25898264834100854              -0.13360652327264924              -1.8026339316006765
H              0.2414427745607228              0.29189907956063565              -2.0722012022466583
H              4.9986725990224095              2.250362556403184              1.1688264031818667
H              4.796517806852103              2.491773684962126              0.48679120020927885
H              4.34730796284802              4.535912503799495              2.9110104342147345
H              4.018597163677013              4.15585788991863              3.4550607026259432
H              3.268439355424594              1.5664180830131889              3.1284134961258143
H              3.377042893138723              2.279278325038557              3.1553883633701036
H              3.060122506162213              4.561558747891447              -0.03701742013729969
H              2.9081874305929176              4.5061669637795525              0.7188244595987722
