72

H              0.6296944369404816              0.8502336515085169              -0.492125876161204
H              1.2849877947045996              1.2399416376297245              -0.20335821911884042
H              -1.5521200204245915              -2.2158487939348768              -2.3493819984973863
H              -1.9749052889337102              -2.316675926821631              -1.857400317545248
H              3.5913186324137603              0.9479451697264865              1.143020286334909
H              4.214740476337244              1.3645459533522764              1.318812735159627
H              3.4517615189889077              4.044316465567203              2.5313753021819205
H              3.849858630409663              4.015174706210116              3.2204708420063253
H              1.4074532731859708              1.89441452067456              2.641437141240612
H              1.8877679037174393              2.284321071959324              2.3272672453836685
H              2.561500301945939              4.050087113219776              0.2830636916975753
H              1.834732032625161              3.848638469876371              0.28505062160100725
H              0.6822616615171526              0.9817024024075969              -0.5782350572485465
H              1.2764022191089541              1.2396324796917317              -0.12229582136180057
H              -1.5321563941009837              -2.011084663961205              -2.513865894230727
H              -1.8904338448223659              -2.382716150665855              -1.862844430026199
H              3.51030317751962              1.053487104634194              1.2544515584519593
H              4.084620748029486              1.190538352780895              0.948916294376881
H              3.66791283696235              4.49332791055351              2.4799486166426687
H              3.920749049131554              4.012495778460487              3.0211209123780134
H              1.778547382637973              1.8770603872879192              2.7352440337908415
H              1.8108064181163612              2.4445542325868623              2.227127543239705
H              2.301429510402462              4.079442384791036              0.2799524110745991
H              1.626826839176745              4.206741040286006              0.47500850596917676
H              0.7334865812224663              1.2623995824304488              -0.4795648112150367
H              1.1441548888344029              0.6990927984821039              -0.42787837572263476
H              -1.4696303858309414              -1.821967616119391              -2.3066924254230035
H              -1.9855472045561562              -2.3212266192246425              -2.052665367298565
H              3.8534376561366077              0.8550329786516125              1.0061315763931415
H              4.0694668559345075              1.5954388088440488              1.143608338119515
H              3.76485950422376              4.243898034752067              2.538603216208901
H              4.084422693865939              4.3811480067308315              3.191690428798959
H              1.4902248032254262              2.0192876189100635              3.0766458044227614
H              1.600035983912024              2.1528552135007533              2.3517415512087045
H              2.456077492705847              3.973995478729354              0.14068352459867586
H              1.7953737610453058              4.187923830052927              0.35183710203032525
H              0.7667277475342227              0.776260846755421              -0.12144067903864544
H              1.2417642381817704              0.4378956874590497              -0.5442410308509374
H              -1.2812841103173922              -2.0315028633896923              -2.4753410896611787
H              -1.6737103322362998              -2.0714946317184073              -1.938833010194896
H              4.262018754055796              0.9391853792065665              1.0648113313100902
H              4.385568096770595              1.6285182306585355              0.9176499197981877
H              3.7875599862773828              3.985201435888214              2.549910213164617
H              4.029593144430617              4.3790568963667456              3.171575856797658
H              1.6245567669991243              2.043775639130815              2.916102240465034
H              1.425539188962417              2.225363858028122              2.2700253712105005
H              2.561067635091092              4.3841860078879815              -0.05372805413834187
H              2.0737912906235767              4.135480288222546              0.48264267837681174
H              0.7337732214196556              0.7085902571499062              0.05698011862342705
H              1.2288532569297492              0.9508435185257846              -0.33956823633703237
H              -0.97070082439806              -1.873071536022944              -2.2246150355752627
H              -1.5029091315380325              -1.9484736142401948              -1.6597365749034403
H              3.601511695755438              1.096336903927526              1.0851285941630358
H              4.000562558000859              1.70536795353249              0.8453074065839813
H              4.046801455474936              3.630470880357198              2.5108841649620106
H              4.048477255765105              4.102489801428805              3.213251277856572
H              1.6734244113021193              2.2524360471757516              2.9870815918104996
H              1.7466270158786836              2.0477995245067673              2.3040401593641717
H              2.576800189149026              4.056950547251159              -0.014557002985542161
H              2.102290375213348              3.875289918215648              0.5710908065573908
H              0.7803567007452475              0.7265660535433003              -0.14599130461049795
H              1.343422400931844              1.1853510122832542              -0.19757491406188954
H              -1.1155872483583373              -2.1699169474160738              -2.0035268775644903
H              -1.7356881212267952              -2.0791551625718174              -1.5999748803125087
H              3.57919226187724              1.2569473573500562              1.1881881188703483
H              4.134012985250179              1.7046978160428996              1.2215719287408158
H              3.7700963447338713              3.828513772147787              2.4933093789291556
H              4.301090747961919              3.9519669391942096              3.0207004095618366
H              1.443682900409061              2.0764639854907294              2.8459290654272493
H              2.0323182185043027              2.014248210277513              2.2211734504781075
H              2.8081901656020793              4.118216755801883              0.5103277718142697
H              2.097691653540194              3.9391282706059427              0.3111175818908655
