72

H              0.981080420873182              0.8572256846762124              -0.5571864645528871
H              1.6705553861192264              0.49358570972896615              -0.5605348419463516
H              -0.9848755054057248              -2.260908762117901              -2.4243877557165
H              -1.724621812277038              -2.491986253139961              -2.093902868344207
H              4.268035980658342              0.8606271608049467              1.3707328015517828
H              4.553720086397915              1.4096769517274084              1.0040316224453292
H              3.827075850731443              3.7065814381731275              2.9446570976010036
H              4.090826492698753              4.320197770333535              3.1812981729911374
H              1.3045815575695767              2.132206157713917              2.7901017038850955
H              1.6595625517741677              2.511000485090605              2.2591676570106602
H              2.6079939861313752              4.194375625648526              -0.20715910358431858
H              2.2402889803265196              3.8738156527947147              0.3668712999593937
H              1.0355996693582366              0.6921206744600875              -0.5921380681182637
H              1.4957838334517608              1.065483595901718              -0.23091949975147155
H              -0.815014148288344              -2.2752726307920104              -2.0171008949961338
H              -1.423307005140268              -2.1751422872535318              -1.846083100859202
H              3.866804053340572              1.0056708864490642              1.3159527503508959
H              4.05950677750316              1.5512790301489616              0.87391810765216
H              3.942823983620533              3.5594382466572494              3.0450573974945754
H              4.339050998894355              4.102006766821928              2.8473333130726948
H              1.7890983983780877              2.239996002797848              2.9108004408387647
H              1.4303021033290488              2.271016476636006              2.226148241017486
H              2.8253579429761935              4.051120393627519              0.08160884832936675
H              2.152970308308844              3.6994837193551273              0.2735929853231243
H              0.8619173004255768              0.8549033063438383              -0.32693923195108604
H              1.593816050090381              0.9881982467385684              -0.3300890042519243
H              -1.108247194957034              -2.5018045760990226              -1.8996620299377718
H              -1.7854023242899855              -2.341245538543442              -1.892761193875393
H              3.5421257972239837              1.2186362121165384              1.3912827411751474
H              4.233252645784788              1.3936519677598795              1.2134207466312954
H              3.7834965716519773              3.713566052804969              2.9459715710828807
H              4.491993646329363              3.930575127442497              3.014828961829701
H              1.7655821593209011              1.9356166293721027              2.755088968880188
H              1.5138279472524296              2.233674135843484              2.0873185193511783
H              2.957460590338168              3.8700459676218095              0.23496042202652712
H              2.1757102902055396              3.8614065136593454              0.281672337240426
H              0.6814327916389445              0.8824725441459695              -0.39854367917295835
H              1.4079012048094526              0.9506962649971344              -0.3415047337584135
H              -1.2361953146057583              -2.4838352681701332              -2.257191825423136
H              -1.9720991040677298              -2.6841975616710707              -1.879031734569226
H              3.8169497557601875              0.743720763885395              1.2845762975644324
H              4.40699044901884              1.3130100703467003              1.487314776643141
H              3.477382249530064              3.6952978104996594              2.9174169755880177
H              4.023901458231133              4.107286861909948              3.1900486234902785
H              1.4659072057177804              1.8997687481610586              2.7183779521564517
H              1.2666585147723024              2.3205007633977712              2.182971677932085
H              2.5134267756839037              4.063515737344845              -0.012378820917413139
H              1.9338569622986235              3.695286120206922              0.23347488791048787
H              0.8762547307957728              0.9159915957718792              -0.6115613644595508
H              1.4638691502307541              0.9546973385790699              -0.20718894866203927
H              -1.4557364788366558              -2.2333736593598923              -2.3485901323120006
H              -1.883348038567423              -2.7618780647689776              -2.108247731728546
H              3.6394150697699237              1.0363692828729947              1.4259947258578203
H              4.291047949379109              0.9923613246173438              1.016229989657993
H              3.5979945003788756              4.108759849754124              2.763772770420294
H              4.146205015713456              4.2740619635621195              3.1244025769894903
H              1.9551602896451843              2.110733772915678              2.8448089959765497
H              1.5281759417891347              2.334910874675586              2.1911646737545336
H              2.431934918927567              3.7927608713524674              0.16614792168631226
H              1.735458788734879              3.9719872114340227              0.06648929779998759
H              0.7184764130491798              0.9905900497498605              -0.6870797646098908
H              1.407833537284757              0.8272822517753653              -0.43556571191306537
H              -1.3282628679238113              -2.2048566977709134              -2.3091484735210086
H              -2.020488136367997              -2.5471446096794637              -2.178802181778875
H              3.9417226369424543              0.8580157184213284              1.1424117736632573
H              4.391145661609996              1.4935176773233687              1.0302925277934738
H              3.5740502213492866              4.032720918158513              2.93966844610498
H              4.224332696516018              4.368804414992677              3.076230205232854
H              1.6973412601326672              2.09871274630267              2.9557300566894984
H              1.262208531435658              2.3131783109344886              2.3459145549158293
H              2.6215660966833854              3.9892389706557476              -0.1372214411159166
H              1.9424029017404283              4.040015903930692              0.1376685842356635
