72

H              2.2963742750626635              1.0160553079993848              0.9009378138310421
H              1.965628251233031              1.715693778582223              0.9406619280061617
H              -0.35319067210051497              -1.075426089339155              -1.8572632686918347
H              -0.5664704794450109              -1.5893945289436653              -2.353128600900481
H              4.738549154035735              2.432660591442147              1.3761703407781587
H              5.125501875900924              2.616319638583153              0.7743984152805559
H              4.14403897778799              4.825505913281859              2.765078345839646
H              4.394935707507278              4.227238374473132              3.100288959467477
H              2.9026056479250864              2.052053233160076              3.592458999293945
H              3.2698956942782864              1.8928654357131993              2.898643088678266
H              3.0647424758841537              4.521957533290871              0.38537299981022355
H              2.5618381280931466              3.967770201170015              0.38990727946388043
H              2.104956059212216              1.4681830315073354              0.9859848392417782
H              1.973553818580106              2.218506151133936              0.8752577057924722
H              -0.521847922320519              -1.4201724174456498              -1.6503006273386776
H              -0.8418962346686035              -1.3180814234306504              -2.309879756166404
H              4.677253477244464              2.1812517086192615              1.4123752629274542
H              5.0774300383175754              2.6423611217174385              1.1232826842352266
H              4.330754189571333              4.709420412687686              2.623706021590192
H              4.570938945437087              4.27776735572602              3.1660543325856496
H              3.0495345215544307              1.847479815724718              3.785784118892226
H              3.19124121843453              1.7386143244824104              3.0669042540280174
H              3.028595448429995              4.713152601334413              0.518190760197667
H              3.04346140261054              4.0318621485750885              0.2828981844706597
H              2.2547303992755823              1.37538182222626              0.6623749155777264
H              1.9582972446988944              1.936086172049381              1.014978933121602
H              -0.6013090188882391              -1.2736119174981027              -1.70304021755035
H              -1.1695126796038653              -1.4127867640629097              -2.1011797360346076
H              4.850704297295092              2.053091675273832              1.4250026858841254
H              5.014636939711129              2.754703646063864              1.2711950001314558
H              4.649482681098793              4.751700117381849              2.637179161804106
H              4.51796019109118              4.189366916927153              3.082412135894021
H              2.915517973218527              1.7427319001981636              3.7856403134772387
H              2.9918470597007794              1.835012637201277              3.075623694671574
H              3.2001029607671274              4.533286398242397              0.3024081751475224
H              2.780265665468765              3.92863652899905              0.39254936539442037
H              2.092601913547132              1.4548093556555233              0.6865101016076852
H              1.8208098437369276              2.011218268870872              1.0820446423598524
H              -0.6867052301036833              -1.237473271206131              -1.6070373225081818
H              -1.2120518008393473              -1.4196958573964984              -1.9742566609964285
H              4.913632016048341              2.401145465752001              1.5395797890136764
H              5.199612946969655              2.7471420347316595              0.9371468268697292
H              4.7160636152238595              4.908308347770082              2.676988617389025
H              4.4956901448705375              4.223075859099189              2.9141050371070816
H              2.7935366630480805              1.7263096874024675              3.672383646477095
H              2.700741259651067              2.4092137371004125              3.349783715982178
H              3.1321913791591998              4.6959664905457155              0.5103495258057206
H              2.9096937111421632              4.0563987237136185              0.4431585463195975
H              2.3199905441618465              1.1233683489670332              0.8757943740481502
H              1.6752429759357064              1.5385445255353607              0.6836706088069141
H              -0.9492691490680002              -1.0081215726215513              -1.6905726649409278
H              -1.2173177658258814              -1.6402377811245026              -2.147279253782951
H              5.148773217109006              2.360826602048753              1.4647161519652243
H              5.001492135093884              2.762586770575054              0.8393754099570896
H              4.4580599038833375              4.927660764830029              2.5461057888970515
H              4.245508550280982              4.372116849651368              2.9963442168025827
H              2.74374407774805              2.1426802863175483              4.045479692126654
H              2.743777957517068              2.4579343290203215              3.426698002200626
H              3.038349181612159              4.621750269936151              0.34042844952075557
H              2.7037894092954144              3.919449568495292              0.20001450952380453
H              2.490662193776264              1.344694681180161              0.9466132822807872
H              1.8225055869607425              1.3033981335951403              0.6380859764471827
H              -0.6986557890982086              -0.9835922211916871              -2.1094532585794066
H              -1.063065260874513              -1.592976089096251              -2.4235017490943127
H              4.907601365536639              2.370205104666123              1.3803288986206688
H              5.384383391716818              2.8080226433571016              1.1732300519702594
H              4.16175685554506              5.135355820982138              2.637454168335815
H              4.305701923361245              4.402651743741169              2.6831751344558676
H              2.7794984403161433              1.6102450022917245              3.663437055366966
H              3.123745036389684              2.1696201754060636              3.3729557132371495
H              2.9657704603907082              4.424281998840077              0.2777033191011135
H              2.4473357725623766              3.914481216825926              0.5323574456509013
