72

H              2.2339172781258982              1.256418527463586              1.0996977261887342
H              1.585975916155862              1.4681647965779285              0.7554557711319622
H              0.23812185252709014              -1.1525871184678549              -1.8431391355099276
H              -0.4126230823392385              -1.0696539814272548              -1.583229710779334
H              4.857606278957422              2.0156157212635595              0.8429264906696146
H              4.764294202425838              2.5727815740398              1.3740175499637302
H              4.002772922326293              4.635274244853393              2.5475665892547137
H              3.975402871740867              4.849212805969348              3.2255449378847496
H              2.738113462513721              2.638218729329701              3.8935019051481454
H              2.473618702812677              2.0237860692998964              3.992294665478648
H              2.8630387538082163              4.282359525084143              0.3097177073688512
H              3.4293032399069148              3.868267572002386              0.41318727585165443
H              2.243931896131036              1.2925087941065754              1.2612216951423167
H              1.7818359177682292              1.4397403260173085              0.6766992920977085
H              0.3379037257037393              -1.1530956606299507              -2.088347123091481
H              -0.28567367686939854              -0.9613056794366728              -1.669540817879393
H              4.8256307081417615              2.3395101348500917              0.6748099256649143
H              5.208907437375223              2.413883156721739              1.2808932982025862
H              3.7634754556019985              4.710824690771408              2.3809222343676786
H              4.020522568456324              4.9146672825165085              3.026904240906092
H              2.2589288761595068              2.3832605066075194              3.638022704164591
H              2.9335973636309394              2.450014007973536              3.9396901020917863
H              2.660296719229906              4.388465488007785              0.7050629842064821
H              3.078084291423749              3.774425948427448              0.5409431208641639
H              2.3879485989624656              1.4702420913252756              0.6953546166278595
H              1.7617753420873563              1.3261217237979146              1.0794368470182085
H              0.47060148399703217              -1.0088839401704484              -2.01370285410618
H              -0.18407317204045126              -1.045015948447133              -1.718505773010048
H              4.639801724102611              2.2220024214238783              0.5547814609558219
H              5.046882027463678              2.3997122275066847              1.1023322457752187
H              3.4470419969926493              4.449871602471641              2.5340001146256177
H              4.032608780451099              4.689029203188062              2.9522055152637816
H              2.515579407231855              2.785359853186022              3.539374624545288
H              3.08980217987098              2.4373101248311695              4.0039252549783075
H              2.458952027020785              4.366835329954692              0.48366655223402377
H              2.905827744523641              3.8042575622279196              0.32292928034074786
H              2.2078032048378917              1.7734806160867014              0.9878416680525194
H              1.7833815639347386              1.1778562371700376              0.8597117226036121
H              0.4653228470098246              -1.1159044288139286              -2.189378024181841
H              -0.019847041992899814              -0.7988533993519515              -1.90041827983783
H              4.735547619303038              2.219144321099999              0.8405304540974526
H              4.984770282179238              2.186636486302111              1.4518730841359824
H              3.544635743432411              4.5798201980691795              2.4220510930380548
H              4.071842205073551              4.604890215392498              2.9710770079804685
H              2.81441010213311              2.347868675498558              3.5152916438194826
H              3.2015881083795126              1.8383520363512802              4.043237011348799
H              2.4681727606802206              4.353456388387078              0.469040328819599
H              3.033140381580043              4.081796225499627              0.12222725942171876
H              2.1877021758635458              1.195546440031215              1.2490550767495148
H              1.5196892343739183              1.4988391445788207              0.9122806855698803
H              0.7681677071931604              -1.1485755300704807              -2.020056977176176
H              0.24500194068144585              -0.6611185593893959              -1.5555686230999988
H              4.891372964929701              2.1230491292057723              0.6111912567750363
H              4.941443589952515              2.132838038964012              1.3890224574748573
H              3.670189951002167              4.379254187652494              2.8287863225715184
H              4.344739214844692              4.608360262706041              3.0361060387831884
H              3.0432096952186356              2.245237799465654              3.2830034738609903
H              2.936464772838808              1.9042750726078128              3.9821102831627373
H              2.8740920590525962              4.709368716388546              0.45634689788465255
H              2.841110580474916              4.038091759053617              0.09736979889204463
H              1.9271357065521482              1.5447661846917982              1.1702093648365164
H              1.3765125653408248              1.9576511112714137              0.9581855916590611
H              0.5490564020502523              -1.281286579363184              -1.5848630849714949
H              -0.07524275164301768              -0.7680178765713077              -1.5162669934569357
H              4.791970888139057              2.2401213212415967              0.6669007708878032
H              5.128623749254868              2.1133765653047245              1.3100125913025245
H              3.819320336906382              4.488930486291885              2.8558137755878197
H              4.4347245071133745              4.737733831116269              3.0789949653523516
H              2.745190935073675              2.532604387903362              3.649391543842854
H              2.941836485579888              1.857471778662265              4.050943342143853
H              2.9518169164751544              4.709579150267533              0.5418633481883949
H              3.2716570058229846              3.971419069938119              0.40676957374971107
