72

H              2.286827817994797              1.3197857346162216              0.770964820283601
H              1.6406309331658513              1.781278159973517              0.7624570680183691
H              0.4938076844271685              -0.8845064452211675              -2.09513644987618
H              0.4676764812609706              -0.07994997216004582              -2.1245003233876663
H              5.609959819345123              2.7134441991645635              1.4403041672918848
H              5.208833063476124              2.094759289708882              1.4936625245137305
H              3.963982890928607              5.067458977135224              2.89369512756829
H              4.428341405461124              4.444845186489956              2.93540364221875
H              3.0242637158933876              1.3578489874183333              3.2619882543370933
H              3.470325052047148              1.9631800761970943              3.001625946561459
H              3.458773359329826              4.022053416519739              0.5065786276807713
H              2.8736095708900207              4.561123342258581              0.5408752205967307
H              2.5213297189996324              1.3052641543787418              0.9728426635453555
H              1.8705290347031556              1.628533952382309              0.7046258294787634
H              0.541396402866516              -0.7707809631360041              -1.9325189252894053
H              0.41882212266984714              -0.12446344012809607              -2.0962214941378305
H              5.474562076579035              2.614930698580283              1.2979798056778213
H              5.207863903703189              2.105383597106537              0.9676572601274935
H              3.9827160681108826              4.686404123806192              3.1788117351274483
H              4.409053740016352              4.217389952933459              2.6895747701401365
H              3.0138977957608444              1.2870657541461972              3.4097346435053764
H              3.1711397567201964              1.9870158768434476              3.158292230064622
H              3.176340797129971              3.925673147385078              0.6346014262585324
H              2.6215936180861257              4.411540003796602              0.6329840614879403
H              2.205958336951716              1.4894503309745044              1.0942597388127295
H              1.7710178129934868              1.9970490733410298              0.853003442706624
H              0.3979225552295433              -0.6115306724436975              -1.5322140841262355
H              0.4092319380428006              -0.14645398001597168              -2.0816963661849464
H              5.458787345067607              2.473680667515871              1.3890681620587608
H              5.329087197119537              1.9402033758646553              0.8840398666720398
H              4.11246376607972              4.342594648545401              3.2499606491354034
H              4.334706981809543              4.247436395715726              2.5804227044773715
H              3.3676563149325673              1.3401174188721454              3.4962255923772334
H              3.1633737318791897              1.9929700820552103              3.246598885944129
H              2.8247273674656683              4.110848379585355              0.8209241486574443
H              2.6321846058171303              4.702355147765315              0.4510070787082288
H              2.1833219271502253              1.5128081407346343              0.5795420580914874
H              1.8728631114564298              1.8405766054662773              1.0924766632449676
H              0.44066667940161053              -0.6027462278203352              -1.7134616205045474
H              0.2485004216855472              0.15045857330395987              -2.027205155823048
H              5.206101234506633              2.4886184493163044              1.224810593376318
H              4.903961783088407              1.843323914489584              1.3305463150722758
H              3.8231374654867136              4.525899797669423              3.1825154365118293
H              4.307494451918545              4.201541308044725              2.7414292888916565
H              3.628208531394524              1.2912785517624201              3.3308770932781804
H              3.1115450358820245              1.7932924283950848              3.224242477059807
H              2.836126649213494              3.9930321488219596              0.5623306372682713
H              2.782515277637774              4.637705418837222              0.20398039416649594
H              2.0582434100855656              1.6629162603638274              1.017915570498417
H              1.4933609996188815              1.7785095286843138              0.5580078312004227
H              0.7371539162445198              -0.509165812395671              -1.8634731807801077
H              0.5028194326578241              0.16897939672414236              -1.9422773207983053
H              5.423658685832772              2.4769643167790463              1.3099354953738656
H              5.102950795295822              1.8690578039761598              1.1254522022419524
H              3.996931842197898              4.922581668110182              3.1228283058528388
H              4.142741068453608              4.351038659214906              2.626877808058826
H              3.4321128120205913              1.0407429864733857              3.114085060752831
H              3.2744727362210204              1.4618014629344924              3.6273146131438305
H              2.849613709969412              4.129357194477773              0.6709627375572527
H              3.0098247173798947              4.823873104653174              0.5744236944459339
H              2.116733315382957              1.4746406776971817              0.836140596615396
H              1.435325213609253              1.6615599037833013              0.7162765322701011
H              0.908193781882956              -0.5985956849017303              -1.8552101369820266
H              0.6468386402883771              0.021622934295478388              -1.7872929598803264
H              5.5695021875180375              2.404874388269122              1.3491939848577243
H              4.9723464977883305              2.073751146898794              1.1971497005030034
H              4.141993615114586              4.962635826579432              3.225503746542475
H              4.091818166455332              4.405533250887131              2.716217026448344
H              3.431162947870525              1.3507051755156607              3.389398980397468
H              3.2095899827683874              1.9574135009180007              3.1691967681217488
H              3.207647309040986              4.081148625145186              0.47875309398128396
H              2.999183495360653              4.822266393167832              0.5297180029167985
