72

H              1.9551311355824614              1.312345243029093              -0.3202254776678311
H              1.3168631281042833              1.1425993086509443              0.08974011896906153
H              -1.5376299718802566              -0.627399382897614              -2.373590570166765
H              -1.0820205983924867              -0.7217825427408702              -1.7198342026210987
H              3.874504840157259              1.6403939372030998              0.6441947738600188
H              4.292603874739596              2.1928595442592296              0.7765078667852143
H              3.692203923293083              4.3059535774967514              3.174825396216131
H              3.9207754548857756              4.332779880329218              2.4710598615895445
H              1.8877014219784154              2.075780408888721              2.73198647385506
H              1.773061614969722              1.7874332979460583              3.3935521379120672
H              2.0316850486970233              3.8303104966626216              0.4577722465565124
H              1.3608737358869185              4.090110813479557              0.6776431210553351
H              1.823858399704733              1.2521118638895088              -0.26852520078458303
H              1.0932072748406934              1.245267021288954              -0.024851187485501768
H              -1.8825257230257033              -0.6930685952596247              -2.515180365886942
H              -1.3360809618111213              -0.9421873304070504              -2.136498169809332
H              4.080234174288054              1.7051083590076939              1.0124268546090833
H              4.526058414305809              2.2593884843806187              0.9382713741018905
H              3.525971370167098              4.609127191339483              2.9761448212072956
H              3.8600262452893466              4.338100335480264              2.359308963889923
H              1.6431643961646856              1.9087855008664671              2.416721545203676
H              1.8421137756102857              1.9712291066924827              3.089580784688542
H              2.084161465166573              4.0181743330524515              0.6819259194922058
H              1.4117656334007593              4.226075834256573              0.8118883317383784
H              1.804559359213987              1.311406626446202              -0.6180932828300456
H              1.2470785259360244              1.4035746151560242              -0.1360718073287273
H              -1.7721258044338621              -0.5200123297737876              -2.435057602129081
H              -1.0899263672183863              -0.6291735171690706              -2.3899920045637737
H              3.8689745576543135              1.8177865534215434              0.7952265092253284
H              4.2158158587378045              2.3467161737479536              0.9436222016510232
H              3.592255095404001              4.189491635262734              2.959380441407543
H              3.9004734870915714              4.588122951592614              2.468990947501667
H              1.483010022806254              1.9495044236653565              2.470482404494392
H              2.0861020934863213              2.0497165402232755              2.791030654722735
H              1.6379224797070253              3.6709904224827636              0.39112202177883704
H              1.5913744509496137              4.009327206029251              1.0201895874119653
H              1.6587934844020815              1.4133933356012849              -0.4661130278228233
H              1.51085436884267              1.21359846462429              0.17853908326715542
H              -1.5135570712666553              -0.29705110735347              -2.238527701008716
H              -0.8194519304169087              -0.5848107308039198              -2.0648378514253767
H              3.935189712918224              1.8069247025002702              0.5809321343754971
H              4.248840536350949              2.505986892327813              0.7587077094590744
H              3.9571202100011185              4.08628885204512              2.9670466410881087
H              4.202600613447782              4.561664322451571              2.4931636893574063
H              1.9159866695820613              2.027716892236605              2.2483581107571524
H              2.0908085655112356              1.8392157825821438              2.908716124031034
H              1.7150856387318185              3.776209484331791              0.4169271591689785
H              1.7723817071165382              4.33678664614911              0.8741840413658504
H              1.8366295593362671              1.160848431327155              -0.3701598608177186
H              1.312310245246134              1.2220100367019717              0.25315029514450715
H              -1.4594865593154287              -0.33261577474767784              -2.284460981793659
H              -0.8449913356067021              -0.6744308223428825              -1.8783294643787218
H              4.393226404936682              1.807073462718259              0.3670456111447141
H              4.456889893821899              2.289891836442442              0.9089688922052209
H              4.021877299007459              4.102398037574655              3.3113872161041376
H              3.7348495265800454              4.192473544028373              2.6726118004430823
H              1.920025218221454              2.4890746816458647              2.445029721136753
H              1.7533464150385314              1.7074707697894587              2.642767124754195
H              2.009099627065554              3.807192562494371              0.085212717402534
H              1.6971552758936166              3.8748299680878233              0.7743287333579936
H              1.6542602622779352              1.4999274779681215              -0.3787981325759832
H              1.6310118108487215              0.9837228879134724              0.1846341621217684
H              -1.3966827160295305              -0.6371464744819613              -2.4085955350716213
H              -0.8624471947203327              -0.6837175544225939              -1.917808392610059
H              4.303071841952597              1.6675248154837943              0.6908869077319528
H              4.827199368279747              2.1220781326691895              0.6013411716661377
H              3.730030251444369              4.015590918869917              3.2320278459275245
H              4.0221199021535075              4.399352440531242              2.6667661046455096
H              1.6582300262042076              2.0708651415398367              2.457009751531014
H              1.9247377586923065              1.9290401745923567              3.1811724627657205
H              1.9315234632428602              3.8008752885233563              0.14276925427579373
H              1.5707142451705949              4.032916725805885              0.7094959270567307
