72

H              2.3863039625502114              1.313911804995162              1.0238347234378395
H              1.8607801150601262              1.8526729144645941              1.0383710875329628
H              0.5329916584718306              -0.8999464350907789              -1.6866852665961953
H              0.2163305392865038              -0.19293514192879127              -1.7927659929668736
H              4.6894319727295715              2.3563439523729817              1.1344880756718567
H              4.89241314135839              1.8060448460607392              1.4890213834895787
H              3.7481179482938494              4.583099640722482              3.1755332926773563
H              4.519482273116502              4.683834646030395              3.043983076205526
H              3.411852660696329              1.617832001204081              3.040592009458956
H              3.0211790541036727              1.832376310590906              3.6480112652491505
H              2.667535826472267              3.920558096124515              0.47851172240532175
H              2.9198334484563593              4.526518079297057              0.09439806146876716
H              2.5729470861467885              1.541609597140983              1.142319092448595
H              1.8651578275062686              1.6764366600166964              0.7735756983473092
H              0.9527749401721285              -0.6968704774866892              -1.9269131003211166
H              0.40246158448131875              -0.3080420290413381              -1.6833537406617214
H              4.879444389799637              2.4314524253250496              0.908371867738807
H              4.89051700316076              1.738025368079881              1.3472175052556161
H              3.685940114925341              4.758574669707697              3.0947178880350963
H              4.435054702540527              4.878343488884597              2.847176479975309
H              3.2913423932256176              1.666091054077974              2.9527913636548666
H              3.0071392809882322              1.8198221262682146              3.5687721994666006
H              2.637099889136584              4.138279503892949              0.6488061714767459
H              2.9161083701949897              4.530327205225104              0.11729864723651834
H              2.2656808859467006              1.8319798837890693              0.991775699591976
H              1.7305311885979922              1.6133220254713512              0.5338574083635544
H              1.0364927431637514              -0.8497191714908445              -1.9427950487948047
H              0.6111430384034042              -0.2579033498864565              -1.7444323603121805
H              5.16038964969906              2.492355191538551              1.1838715923002003
H              4.937850676074506              1.7582856296688065              1.2389739000153546
H              3.8137029021120488              5.064948739747016              3.12670329238753
H              4.329877187640885              4.678297289898743              2.832680566035638
H              3.3927828003367853              1.5843816293131088              3.1969176000342063
H              3.062185684847146              2.1146804983113574              3.5900607109773364
H              2.78609230836649              4.018406530187196              0.5774942130423171
H              2.785627051114744              4.643799455025326              0.21064301377753708
H              2.5730069543925995              1.5356139173236565              0.7230987982588835
H              1.905891092559095              1.7578232980846085              0.6306460442850745
H              1.0087891942225797              -1.0708099144795604              -2.213074405488252
H              0.6350567890863714              -0.32745990871636665              -1.8666646215214904
H              4.943059004874281              2.588236401266875              1.0355255873374327
H              4.824072268940629              2.1900285994226065              1.7185401777599394
H              3.8432325208278093              4.888939193378802              2.8465936084443793
H              4.468108813717233              4.580208090755437              3.061035289899339
H              3.408147638062193              1.3807770008191453              3.5580067897283882
H              2.9786823547804073              1.9409175439758823              3.4413960073864924
H              3.175170976386985              3.7614200911663738              0.380749967935338
H              2.7007917224009987              4.343541725413061              0.2240712674959942
H              2.4389787769156817              1.5076802121097614              1.1267059513538975
H              1.8461085076431962              1.5137831078733281              0.6494765480115748
H              0.8650346264694599              -0.9622667832321313              -1.8681447194282261
H              0.7699588072311851              -0.3144221304189281              -1.9429743513191113
H              5.04006994927467              2.7087107831486645              1.3189765960589699
H              4.933957343483185              2.0484251344984514              1.1211548169230856
H              3.9654921500102076              4.638562577959651              3.1817139631769895
H              4.617961925581856              4.433212304546827              2.8460044159494204
H              3.0163159729768108              1.2153741828608389              3.483963356598053
H              3.1695566775499464              1.8703045049286993              3.689897809911387
H              3.063028957130869              3.7827070448957083              0.7600454524044954
H              2.6169794156818096              4.248571220771296              0.3907529457179609
H              2.3665260987033445              1.4126521778099093              1.0850185424987961
H              1.9218363029928358              1.979718572761616              1.018620195300133
H              0.7966332568787271              -0.9791801561143212              -1.4493644315330911
H              0.5405303333093995              -0.3255990932249925              -1.7071433553527946
H              4.786907342996623              2.5567561285450418              1.041014100128538
H              4.920976257411311              1.8484011775203026              1.0829189424488523
H              4.093836010160211              4.19936315355308              3.3616422407500206
H              4.515067931523902              4.542039613782624              2.8430890885245472
H              3.428108464794732              1.6082977151282734              3.631627800028734
H              2.8112812372417264              2.077218942129217              3.5479011731599455
H              2.801755742392848              4.0057115178229745              0.8390047214952523
H              2.840843904103291              4.273692410243691              0.1336201772955901
