72

H              2.178806491774107              1.2943049909152737              0.7526137325123639
H              1.5969280514786999              1.7807679448334242              0.8996882289154132
H              0.611177854742068              -1.198716647725985              -1.9698187499285351
H              -0.19415681219630773              -1.291339491094734              -1.794943814886492
H              5.110187976338288              1.9937707274287426              0.925342635471179
H              5.1248047173245155              2.494464515310405              1.4282180537928715
H              3.6102928840336808              4.760906453107316              2.585096510549458
H              4.210092858474611              4.604500172383906              3.0514111195434683
H              2.541244459204005              2.5819216499737663              3.661549717058896
H              2.6109349956499983              1.8786097401029282              4.034157467180121
H              2.903260990047428              4.446035368068445              0.5237008417570735
H              3.058402877867084              3.7751495024655806              0.21303547427938996
H              2.2292029602280423              1.368733549341233              1.1966126365709127
H              1.8024483947915737              1.5992013187385903              0.6739285594932757
H              0.3801968131286001              -1.2272645304222318              -1.8001805135347662
H              -0.30047060333968933              -1.3197775147578432              -1.8404084237129856
H              4.983253758891037              2.3359041086371994              0.8336575249063972
H              5.1113569840851              2.757324764490523              1.3945045834246572
H              4.139656199358706              4.437076789844768              2.433037218362823
H              4.163140652262576              4.814578031692248              3.0940833672806343
H              2.343294985237517              2.5978196711004125              3.6730945982754615
H              2.842420879192807              2.4290890052964356              4.23060208398362
H              2.67334555306033              4.407029395887562              0.5008016501644651
H              3.057937702135093              3.780355784730555              0.38295034001633316
H              2.2621254711296284              1.2705418334991185              1.0172147308221866
H              1.519464817293049              1.1345976154153175              1.1159740695929599
H              0.1251269733475037              -1.1930418003434475              -2.046019976863181
H              -0.5367890048719807              -0.914056424650721              -1.7261512644661217
H              4.663367363469983              2.465093838542744              0.5019774899927943
H              5.105952310962263              2.3212084142149174              1.1430964488636934
H              3.776654647813208              4.559683780392764              2.4947394910598737
H              4.046082611791667              4.805701029395944              3.1187454322634234
H              2.4094480562994267              2.226166971558429              3.6786878939775267
H              3.0630023865379346              2.170273481233184              3.995324555216422
H              2.5177102236170543              4.384834256902603              0.3918435053649443
H              2.944330746821194              3.7916082754982723              0.48613607082942045
H              2.2433283838510056              1.6054084007393095              1.0816367762699228
H              1.5534402591867607              1.3916706567747799              1.1290431144382242
H              0.3700258381115005              -1.1843158384581478              -2.0536475464722748
H              -0.16435078818572796              -0.7811996862942784              -1.5989106043845935
H              4.721870282056152              1.9697907628974418              0.6661907749370098
H              5.165829120978031              2.290658835662837              1.1478731591510871
H              3.6905471657531423              4.491072549397576              2.5584393510964722
H              4.044021906692866              4.669751342344651              3.139759532990198
H              2.4208001761250806              2.270995460054639              3.7194810212435443
H              3.0688422890405715              2.0818151909253357              3.7774754865006024
H              2.71810978393891              4.599766614585548              0.3337616613709699
H              2.9460914788321357              3.8170313889339558              0.538398084621308
H              2.1371788264059886              1.6933799649632921              1.207195628227306
H              1.455038259027025              1.5226240759242378              0.9663504945514657
H              0.3780139162023097              -0.974662007619988              -1.8387794280498022
H              -0.11655368553651088              -0.6479041558404568              -1.5407962336008247
H              4.7442156017031305              1.9756439211896226              0.8029839499646728
H              4.9137600844675005              2.2238327833233837              1.447326668898046
H              3.726519993830254              4.619367739470248              2.633874320510847
H              4.2951002032647425              4.848809768870528              3.0811774364116085
H              2.8496166935924525              2.6470373565437617              3.4125660623419365
H              3.1179339797622316              2.0861048553364685              3.757806405832483
H              2.659154607086111              4.5353516133548455              0.35074199487325214
H              3.207924938878947              4.040650688347719              0.3931671555211667
H              2.0365595735147335              1.5472849890733686              1.325900640412003
H              1.7843947817089407              1.8008362063746217              0.651824822722734
H              0.3573528659209613              -1.086895155886892              -1.9808781207983386
H              -0.18510700949773742              -0.9304917652861937              -1.6080964619083362
H              4.7128729199926775              2.1062140215540412              0.6787233862590406
H              4.839753648764529              2.3490776560511923              1.3163371232570158
H              3.633214278755343              4.783969979953754              2.561257694825769
H              4.207949778851176              4.839634578247766              3.050086288549382
H              3.0525772804172244              2.475031845319125              3.6554899600680897
H              2.858128952320553              1.8240686367879935              3.579583725790247
H              2.892189601826889              4.666544560908282              0.32405661582900136
H              3.135372062097534              4.002190224296708              0.35448258790034787
