72

H              1.1333540338779924              0.9393083328153988              -0.46793629503607204
H              1.2526301768702899              1.1054108673135588              0.3131106250726616
H              -1.7181357656734153              -1.4393218475528227              -2.3090669847808787
H              -1.8431476530516755              -1.557760437492685              -1.6370409586293304
H              3.6466893261505207              1.4989500414608379              1.0474842171634393
H              4.1397512782649              1.882441816099007              0.7754334868739094
H              3.85480417810096              4.635577248179516              2.631274391605972
H              4.011530707095102              3.919182923308082              2.569755085853383
H              1.4092034554346085              2.344246383784643              2.4763122676155973
H              1.8751579878386195              1.877476766104084              2.766642968439891
H              2.1768375974833543              3.8947987689711603              0.7641288350147979
H              1.568996250334507              4.24151528624926              0.6311798790717563
H              0.9604617486236138              0.9201917690657697              -0.5207926966438591
H              1.0764772601078303              0.8916099630598011              0.18654178102090355
H              -1.8936391294967618              -1.4173746390100703              -2.5828717944819393
H              -1.9585225644608986              -1.6520971631118628              -1.8845759321583586
H              3.6884793412729704              1.4559761726826086              0.7988767603314093
H              4.089702803569835              1.7906443880653              1.300444861690256
H              3.8269443377652763              4.6889914030570194              2.7542335887934617
H              3.519719620187788              4.01823442693415              2.788276326835275
H              1.0271846537971931              2.3530350498401322              2.5662430253165054
H              1.7267941704997702              1.9999735363284683              2.432733085476112
H              2.091977868814124              3.9603975073486866              0.5031072173717386
H              1.4204822657006555              4.03632037314358              0.7205499932156603
H              0.7473113069593685              0.6840590823710375              -0.4379925497095063
H              1.273021747745059              0.9209385146249294              0.08925441770361499
H              -1.717727085052697              -1.311277566158375              -2.671200555873172
H              -1.465001757594433              -1.5998391215720613              -2.0437087615619167
H              3.8999870475677696              1.4150279046386312              1.0874315912357875
H              4.296244497894265              1.9538627387543042              1.0531869751109575
H              4.1709862317008675              4.786044298692921              2.7245602466269774
H              3.660300606582422              4.302262938122497              2.670174471799757
H              1.1622849594145106              2.2735371501351214              2.782501947260697
H              1.7223564910739257              2.0223119342682376              2.297140411681808
H              1.789764826816714              3.824312184230816              0.318234591305079
H              1.6398732058822907              4.165550281048718              0.9456494321559499
H              0.7717798890233596              0.6694907675114304              -0.4678887642604237
H              1.082659418204087              1.1394485518184803              -0.021073701294147592
H              -1.508143762087533              -1.041817163651595              -2.407961022275985
H              -1.3830213481507863              -1.4503406313002263              -1.8642999475121327
H              3.9495602500935214              1.519687547298639              0.6314240005913777
H              3.9587645223134746              2.2504357461147273              0.7882121345275618
H              4.357450682536399              4.531019707819612              2.577777288924951
H              3.8031799412117997              4.216474678062682              2.9237136806827855
H              1.4383849719736646              2.46886942408431              2.898884787047638
H              1.5839988131300369              1.806581688770281              2.5704800248436275
H              2.0741561689626415              3.8335900520941797              0.22857733159336285
H              1.7205379103374752              4.15432023877896              0.8284086847147784
H              1.126442414209883              0.8918227253081006              -0.5850697822658559
H              0.9283688472365685              0.8565156972875071              0.0952536570031313
H              -1.4177673518343028              -1.2057731493037762              -2.373168013089799
H              -1.3824149290313341              -1.626523896314415              -1.6692438418821363
H              4.00347479214129              1.6438899320827425              0.6791288142018379
H              4.356786136344204              2.0886223265565036              1.089026703356919
H              4.399424207830215              4.235672776029935              2.786554083002217
H              3.77002098122569              3.84427886790773              2.9494955600157984
H              1.114251145073914              2.3418254550904036              2.5771150298527026
H              1.8013075034438173              2.021325683012096              2.603424239849538
H              2.37471264887702              4.16719314523049              0.4204973638943067
H              1.7045642443496882              4.078639590306984              0.8405504913622354
H              0.9700455588476661              0.7520170082111608              -0.289292721706763
H              1.185552763490733              1.4437145868759675              -0.16516603975093427
H              -1.3976784495175452              -1.3805366476183398              -2.232533736170185
H              -1.3627623958416266              -1.4854802951146273              -1.509436677734969
H              3.8202468993078003              1.4902526126963853              0.8461253615040819
H              4.2235074177774985              1.9774776023428386              1.1385004338739588
H              4.24346744890792              4.2330989158886245              2.6854190383528493
H              3.720802252027843              3.7608826404745073              2.911663380518832
H              1.225595364300231              2.4384421876238327              3.0070590603790452
H              1.4965589955487277              1.8732804761086421              2.4766043800453024
H              2.171354905509693              3.9695673886567326              0.4072205448953431
H              1.5678582499561466              3.779846441457606              0.8253855192270156
