72

H              2.5480622204232857              1.7118439191243071              0.6367764437239434
H              1.9894156158042322              1.2837810893389636              0.7397925151737484
H              0.8474140607994921              -1.0582647247254482              -2.1743482815727777
H              0.4684216153817427              -0.6011090552891332              -1.838757912750629
H              4.674903595474917              2.4573168840483777              0.9013135051240078
H              4.574430034150409              2.142348428786991              1.6015456867140399
H              3.6005381866429436              4.6512444809682565              2.7658185483337934
H              4.266458714701259              4.521499612716549              2.978049180072946
H              3.3810969611921347              1.9494598730265291              3.442908301410744
H              2.8889612619686917              2.1471195745745244              3.929193738883639
H              2.839123861965095              3.7116968503749086              0.4139423588148057
H              2.737409408170371              4.305093211793032              0.029586334931629134
H              2.315821877250553              1.4143444744546758              1.1838843202724807
H              1.949226133128433              1.6942795148558554              0.6245667591667918
H              0.9227360303338362              -1.2047413965354996              -1.9443588689824196
H              0.705535000962028              -0.5254690423322864              -1.756907253477897
H              4.71879540295986              2.6682592558944487              0.9283373586025764
H              4.870947283813347              2.0022207871445477              1.2452883773375263
H              3.8146280402276096              4.405537301172752              2.934336862800896
H              4.478329354227725              4.539452460015598              2.9309765456817063
H              3.0205806267777886              1.5176279541441167              3.4694167431122156
H              2.9554473887507458              2.0609565016453932              4.163229721048748
H              3.003863215925141              4.14661643310132              0.8597618527233081
H              2.7466627888645476              4.041868370606368              0.14984236411276614
H              2.274911293580094              1.2896334888333032              0.9845344252417775
H              1.6484298437217055              1.6772585405429667              1.0128446204729025
H              0.8065513682151195              -1.1464357232813278              -1.507056222204809
H              0.3477485935959305              -0.5309611368654228              -1.5282031455638148
H              4.613120662025503              2.4427191546491307              0.8546389520019818
H              4.886482182749715              1.9031567128917626              1.1983924043892773
H              3.881060112405653              4.185996181376868              3.273169130304137
H              4.514062134444597              4.6029708629245105              3.0209781260208213
H              3.1976887511157956              2.0646309006545436              3.545759337314716
H              2.6426391071625113              2.2715615634614115              4.115114289256239
H              2.8213088905758745              4.1800752035326605              0.7517044193683496
H              3.0926688436639003              4.045593996201057              0.07196160098600482
H              2.3447491936077296              1.4159530385419412              1.3063175211165812
H              1.8761592762113442              1.6944461941796851              0.7342551651911359
H              0.41711839665112355              -1.055128831005504              -1.720814499897633
H              -0.02719980607699268              -0.5928706926407435              -1.6263269105385671
H              4.4637238839866376              2.26062238478951              0.8611158832046923
H              4.862612130518533              2.102646052080821              1.407076164803958
H              3.916215888672433              4.424572802900201              2.8161028161293893
H              4.284025807168969              4.931800087693383              3.2210881805342653
H              3.156478431000252              2.4320903762381905              3.4870356774398523
H              2.845661990436986              1.808712124322489              3.805294184114817
H              2.6661874731790385              4.109579890463394              0.49933291898503784
H              3.332487511427898              4.24268574783648              0.217304421181616
H              2.5145396860014366              1.2959979013051053              1.161014382132666
H              1.9346152110916548              1.4953223332050205              0.7128910515291547
H              0.7272973221760819              -0.9074066925329711              -2.0445750415834087
H              0.0892347220058128              -0.5554150732399502              -1.5844420275881443
H              4.542510074550679              2.2643182926630385              0.6878706323753937
H              4.884695583073146              1.891405196791431              1.2925964979170756
H              3.5656357173862236              4.6313417796098              2.8548427259906344
H              4.17282909979976              4.896350170988593              3.1028586581589006
H              2.9162824149781956              2.347893637985334              3.055459098169064
H              2.924024575724475              2.0913670383567053              3.8292998876370055
H              2.5498828627390466              4.100928547094669              0.7032672214712974
H              2.9964572362621715              4.160716613837066              0.06076498219900743
H              2.5871917235347954              1.9164948252278025              0.9186168936933683
H              1.8918662329814742              1.6874711730339411              0.6694415896620695
H              0.9409491037466022              -1.0034101662833788              -2.043408931918135
H              0.342009943102927              -0.6729297699590219              -1.7044739989061526
H              4.65376703965603              2.386756584515073              0.8043685822266059
H              4.999681922221397              1.9108459466737073              1.3356129258813911
H              3.536610184816156              4.706524619115987              2.7679405878539334
H              4.283225091690034              4.733674358713198              2.8494375255691273
H              2.9810787018367364              2.3075397688895576              3.23804391059971
H              3.046336070299312              2.258506785811583              3.979793434245772
H              2.6654736080588286              4.056344920511136              0.7957841383558842
H              2.8518428753962826              4.303565868978548              0.07630681113055857
