72

H              2.12222680720809              1.4008225829029721              1.1197255326213806
H              1.5775341455095282              1.7058616615174778              0.8043792651034474
H              0.3869350742844281              -0.5941770573120874              -1.6654122306994774
H              0.22319391308957742              0.012915235450645171              -1.8923594823708743
H              5.655040128879344              2.5044362050653683              1.2785504919932429
H              5.288317089968745              2.011216223500261              0.9543057644754844
H              4.049473411605358              4.925946460936459              3.1326676012863435
H              4.324617910856809              4.260830501688219              2.814165833713884
H              3.201263157114773              1.4856359589737147              3.113633898274698
H              3.2878803788703412              2.225987064904208              3.0704647578791917
H              3.197580337514439              4.2377475165498275              0.3384910376593919
H              2.970674004558489              4.670729871920461              0.8617347055615143
H              2.3639911256548958              1.463257497966359              0.6821307573217851
H              1.8822804733478131              1.9955562393603097              0.752241699802728
H              0.26402209035458923              -0.8408439660793912              -1.9991282229657616
H              0.037869578572296385              -0.11143182305565537              -2.121010428281255
H              5.466434825965548              2.565423190150262              1.2909623411458486
H              5.225669763517449              1.8798969895796787              1.0551737566722479
H              3.711572777450359              4.794283431828677              3.0797896937198908
H              4.254948689072434              4.364759134006861              2.8348360745297887
H              3.0630838370503              1.415919371227005              3.1582468063574183
H              3.221750657071904              2.146662541149986              3.1753288561281763
H              3.1166114645007044              4.239800468170034              0.7207365780867637
H              2.6852081002367365              4.61090991239553              0.24519288027701724
H              2.482202024451915              1.473505122043627              0.6398980834090895
H              1.748220216701552              1.536817413308654              0.8444181631009811
H              0.4885134526986185              -0.6267599517539969              -2.0269731534466984
H              0.24475786403817185              0.07015797188125664              -2.3401864357358946
H              5.5905351766075775              2.502465982947187              1.5133129309771167
H              5.102062679066198              2.0610009639433704              1.2151150691517831
H              3.9835470174334247              4.787590155387307              3.1243832604112027
H              4.1663783481756225              4.266320809549097              2.5590687969564483
H              3.0522589709884307              1.253957822320034              3.1778767094619926
H              3.376831361195776              1.9447819783087623              3.1884306553147446
H              2.8698759677366312              4.12788223635853              0.8077907451322784
H              2.582486062712145              4.663742282397003              0.35281052960031034
H              2.292473080537872              1.7700008292976417              0.7532319176921519
H              1.5236463379620546              1.8906383769409565              0.8307388782331049
H              0.5917592900285694              -0.3881873515586479              -1.8054566971615247
H              0.581753968948015              0.22400267491919557              -2.0950048534375942
H              5.627467136913888              2.5209807207618007              1.1055114169176539
H              5.076819333846675              2.1891446872680955              0.8204076637247616
H              4.078305118159265              4.536434066886396              3.1034986011597954
H              4.2488557436244765              4.195971103955022              2.3896938066644986
H              3.8103975200472675              1.3439589393009665              3.359204173523425
H              3.151882545531941              1.7176039222759734              3.261374314206613
H              2.8024774271652664              4.020000574465682              0.6046174056373156
H              2.8312148748736705              4.767931322734041              0.7954292524972713
H              2.0128525972066553              1.463567301908062              0.8516888368563504
H              1.4283468034271942              1.8866420624405251              0.6602882722422209
H              0.4140870810928782              -0.4226861551550494              -1.7783790331302016
H              0.7188133004412396              0.1942042767427775              -2.0291367322749045
H              5.353865419244328              2.3683243449626104              1.5456336130967134
H              4.9199195742984845              2.196173065572819              0.9755775680824343
H              4.265049574812147              4.63743567866162              3.137950990079397
H              3.927222221450679              4.013909030924675              2.927547629881658
H              3.481297438824552              1.0559793239445405              3.463190763927346
H              3.485418600457015              1.821276640322957              3.230309194795229
H              3.1095726439730775              3.909776812455277              0.4460328059767262
H              2.910661728537836              4.663027360626246              0.5970882052685893
H              2.146175613909972              1.313019145800022              0.8487514705114158
H              1.6493183313490904              1.9017271771250286              1.0089281999734598
H              0.6777514614767705              -0.6280889059119954              -1.726034507549334
H              0.533293287334134              0.09288124429510089              -1.9657238810709505
H              5.479029463200705              2.584982703044402              1.46248574515732
H              5.0427724531936855              2.042778591939112              1.446184761492929
H              4.290600613085325              4.763363034695366              3.15335162778343
H              4.288034247522639              4.12343632278123              2.717396645241477
H              3.153421822473455              1.1996403953648227              3.52605080020135
H              3.291010023091643              1.822638119228126              2.9830161250727647
H              3.459268854182339              4.03945982915247              0.5353493195808628
H              3.06735440370323              4.641949165533023              0.6338676481349418
