72

H              2.2065629419668906              1.4122023659773277              1.0510495981661458
H              1.6594348679663258              1.9373964858805741              0.8640254627697884
H              0.6151814883036137              -1.1251423843140949              -1.9492828602521788
H              -0.11787786170338563              -1.1744188485807612              -1.8796297665203292
H              4.9363081403906985              2.2816681433547017              0.749760264754292
H              5.210638289911394              2.477887423287896              1.3889553383418365
H              3.6403502507171512              4.653416077715511              2.6894223490368967
H              4.375284074723243              4.729684805224722              2.817524328193167
H              2.6305288756536513              2.4899897250068865              3.3494965762099147
H              3.140364982842142              2.0342657162062143              3.836578264096411
H              2.760363195477185              4.61897098226072              0.5512889262762501
H              2.711797740239405              3.9294105269960293              0.23592482158975187
H              2.236321550066623              1.4043667480626187              0.9527017362786349
H              1.5742670322574936              1.6612532018945076              0.9404286302515324
H              0.36678255668708143              -1.2593163659772626              -1.8234695375922145
H              -0.33443957515516004              -1.3360161426305945              -1.874985454158091
H              4.938341424498142              2.1111701327768344              0.799477704080325
H              5.008393448960985              2.5842084464279176              1.279702449765511
H              3.922147053744904              4.445586723484456              2.6131807119949335
H              4.1958243755501226              4.626484926232395              3.2183255288368486
H              2.6258523759106143              2.4427631337183193              3.6719595571091954
H              2.8465571594827757              1.8490993535616833              4.0564692713595765
H              2.751286357896675              4.544247982914034              0.17831461853069963
H              2.97357056185467              3.8150759479111125              0.19781705799638877
H              2.193427275986731              1.4654782405583346              1.308732179446719
H              1.5227431129493725              1.5582508038979737              0.9104227399570138
H              0.20980041888673104              -1.3523377426437235              -1.9207521854898848
H              -0.46132132017328764              -0.9289313597629477              -1.7525832198934592
H              4.941921997052519              2.1932149860397097              0.806417143400764
H              5.245919603627218              2.400137775165372              1.5191980930679252
H              4.215678955979646              4.636075241711746              2.510172946802276
H              4.197000735008285              4.773507693627858              3.2613735415178695
H              2.290249332319666              2.0435306898933074              3.7178670683644324
H              2.9046255080122467              1.9315960598313757              4.009616422367125
H              2.794982001724961              4.49892303417138              0.41884475003077587
H              3.0759076551680917              3.824336924775362              0.4877196877432411
H              2.174283591474457              1.3619545968383713              1.2650054929697345
H              1.4965026847181402              1.635181480005849              1.1316280313624358
H              0.16420257412205272              -1.1225182227213715              -1.7699649001891835
H              -0.48630784264605514              -0.8360582325684703              -1.3617005526156103
H              4.6920409646097685              2.0813200906644225              0.5145514680835909
H              5.029563102334955              2.4999986184254626              1.0555324081402893
H              3.9940893148619434              4.531007302804207              2.6803618613347213
H              4.247078321797026              4.933076396753309              3.225009196483023
H              2.3210342421116663              2.482087781428691              3.6767246536334652
H              3.0147246991899364              2.368418979883801              3.6833802702551424
H              2.9653643646844325              4.482343407559185              0.2914334850171317
H              2.895280969715835              3.8775000390877965              0.7802516605800598
H              2.1734052139530426              1.9251381283144489              1.014368758441797
H              1.567596322860371              1.5412163326230097              0.9830260976391373
H              0.024368405053067706              -1.0664820457147615              -1.9666706709075794
H              -0.6047449634321794              -0.9032249654266289              -1.6049722953489085
H              4.57551155361003              2.015609219871255              0.795270858967305
H              5.024210454955846              2.4061843147478608              1.2529404147479202
H              3.711213305397741              4.947106772786788              2.4296567795909545
H              3.9892638397586144              4.866728529963222              3.0594647657927028
H              2.518602721529552              2.525479938485103              3.914246440830527
H              2.986234940153238              2.1083909429356926              3.5686652315827794
H              2.7209871418166456              4.195960668145746              0.2941911581414341
H              3.2390804234443435              3.9723392526632915              0.7112113402698588
H              2.362824692487695              1.442659911191744              1.2103612068276715
H              1.8958847459012813              1.4692591334037428              0.5703554986405827
H              0.3450069030649683              -0.9494673650909917              -2.185438654910851
H              -0.17876374731875122              -1.176553853726684              -1.8350065353377951
H              4.893276774916834              1.9599294764185415              1.087327881459246
H              4.858924243273441              2.5629439710421402              1.3562995201899115
H              3.658313157553992              4.847282315114033              2.341149238597789
H              4.00062866278047              4.749382508275307              3.030398732710677
H              2.823219915444996              2.6531183224612813              3.590347523289426
H              2.7535977980294772              1.9898831797184398              3.599266594483803
H              2.6466294223963462              4.425578963175019              0.35016701523939675
H              3.0231634619292858              3.810460045382006              0.2385299944353146
