72

H              2.266735561451004              1.7150003773442029              1.124998403699104
H              2.0313009795809784              1.9759730779741296              0.5144118960236234
H              -0.4190669406952096              -1.2658768644965868              -1.768072021876868
H              -1.08871125769252              -1.6089010921611824              -2.110672208879038
H              4.910648839643894              2.200545514552162              1.4949048241562124
H              5.11351233037055              2.9201715219780557              1.4837658262818014
H              4.479895460736229              4.960373558284538              2.44947331720875
H              4.341522964617551              4.382746338085883              2.87936453297221
H              2.6278770014611563              1.9928785204049784              3.895214025153667
H              2.9066752864052043              2.054658076306516              3.27073446081353
H              2.975719555541873              4.4458187456732015              0.03580296910298554
H              2.8579281534204513              3.977589787804347              0.6132089351861096
H              2.382074104640488              1.0320685999067243              0.9195197594687832
H              2.0099487369945583              1.7035399722955924              0.9152405476683034
H              -0.47990443051692433              -1.189648071221469              -1.966678813421411
H              -0.9128166266778087              -1.706458505873123              -2.102188720798284
H              5.074738624540796              2.2363497010579954              1.322322282030487
H              5.235859436452244              2.950738082214356              1.1451904606907606
H              4.4607050121901555              4.974521217898462              2.6048136018818475
H              4.241763498123805              4.374202495085585              3.0341744296017197
H              2.350187078783732              1.9073933742164135              3.7736167668798366
H              2.7918370914861654              2.2264640110939977              3.211647289898361
H              2.7963001690016216              4.2481218612318              -0.0021651495557019054
H              2.550993417926774              3.903451577351224              0.5976205501726018
H              2.3725591731273106              1.367751949939409              1.0401789806881865
H              1.7635839454566575              1.832571922400361              1.1091088443812578
H              -0.3805511681673978              -1.1944007881361334              -1.7475776203688884
H              -0.9290145215234092              -1.4887101853034108              -2.2021609366389883
H              4.8763391592342185              2.3346459341164647              1.2706195066119865
H              5.258788465349488              2.893210574831261              0.9190140905856883
H              4.410889670474507              4.864676819729341              2.5441536654874697
H              4.367720103842602              4.557024033905509              3.178598906583823
H              2.475189989140931              1.939492616739725              3.85382377488314
H              2.856584861564732              2.364932762125344              3.3732431562438516
H              2.625398728410828              4.512703966194008              0.45404827703842787
H              2.897379925963446              3.8209742771066493              0.3914012015272178
H              2.4627168980089595              1.4476268057186368              0.9898647917980288
H              1.7191301513046426              1.585865192833399              1.0655754769792125
H              -0.3700973930987406              -0.9753498697374887              -1.8337714665743312
H              -1.0285406632004015              -1.2344241899399455              -2.1560426623035975
H              4.64964951533397              2.1234926905289826              1.126447968554832
H              4.931409387309062              2.716962953238005              1.1492810437259302
H              4.210719694792236              4.921039754447773              2.4955560258058243
H              4.397633528006552              4.65313184138006              3.1717726060206917
H              2.726052906698886              2.0557370308175527              3.76910861117817
H              3.1769939350015246              1.8776057219693643              3.2468197161451853
H              2.8038946161102167              4.391858242639277              0.4802126136728526
H              2.802409303701453              3.6371343370679083              0.2730885557604464
H              2.400763202807868              1.7654353954346678              0.9239437673146438
H              1.749888150856583              2.0982924681169437              1.1279156229855603
H              -0.08799223818054368              -1.0703852569128816              -1.8806562539749778
H              -0.7583748650817407              -1.107837714389652              -1.9836052425245287
H              4.468107423647977              2.1766658876788845              1.2589433381709774
H              5.077128793516244              2.580810922374799              1.2073846137797926
H              4.149907932015761              5.032778183281463              2.632099687542751
H              4.494754774514898              4.4739794226822625              2.9740002101343177
H              2.8743205621650096              1.662106164688977              3.5012156971156947
H              3.2444965592713673              1.9165077452226311              2.9393972983813956
H              3.1832656081338353              4.445144975148959              0.6005012239331896
H              2.7930572116273575              3.842351508728668              0.4866727932172851
H              2.0322210517716073              1.579182028164908              0.88919887663376
H              1.9595393037985658              2.2907850628944257              0.8986468030780727
H              -0.1247857963351238              -1.1249344758435682              -1.547519736196857
H              -0.6833972726602336              -1.3939682914404623              -1.9037272615620546
H              4.742538113231703              2.1884913614063244              1.6008475829053541
H              4.862662302755446              2.6095699476030383              1.022035410161444
H              4.288277450004257              4.833507958610859              2.582111434605066
H              4.435417997295507              4.319770415968468              3.1251617327023666
H              2.8506533978034545              2.4522932471680177              3.6003848656526243
H              2.9866951654479403              1.9261693457564366              3.0890382204563744
H              3.241039474879512              4.512789842617882              0.36025625106259546
H              2.948351493001286              3.907809457583476              0.3429817658270146
