72

H              2.4482426700598747              1.532525284736035              1.0612991252018433
H              1.9279847617483497              1.7986581243749689              0.6149508837489674
H              1.1201466956338015              -1.03540899911706              -1.8300692598775492
H              0.43484381125220506              -0.6841428381276692              -1.62467718673266
H              4.869605983939546              2.6506661148142436              0.8096563865963361
H              4.864012350289014              2.1010355628149733              1.261517088825514
H              3.8455938569246664              4.627630546662597              3.071151090166433
H              4.557427939712284              4.826462225260908              2.9167687066234147
H              3.235123118625975              2.0253087215084125              3.361914095692539
H              2.7248812482397327              2.2069953675433704              3.882280574448266
H              3.119218541156143              3.972005691827589              0.801861491400405
H              2.8316555940652535              4.239422402474627              0.1626210984858694
H              2.594808761294235              1.3768037162978024              0.8137997571576352
H              1.9408417532523246              1.8065029026600725              0.6667961461532148
H              0.7342968582463599              -1.2178050491439736              -1.9124456675847126
H              0.17573237590002622              -0.7086618463648598              -1.852338789049684
H              4.591800459930861              2.63256538131281              1.0072401897437868
H              4.931514099336729              2.0538460898707718              1.2989401648520977
H              3.641723812765664              4.571284030679043              2.987075086766872
H              4.390057353420116              4.576429397551682              3.060189898927497
H              3.0007076536446617              1.847420969150838              3.4601114140400235
H              2.869471054535128              2.1568252258175344              4.097793728668186
H              2.932712120415727              3.8040287888541005              0.7333273257527216
H              2.7366290696509705              4.04937711060135              0.12407764802151229
H              2.839626309307058              1.3422729672715528              0.9687306844928564
H              2.147587923496722              1.548508791801371              0.8770622523672719
H              0.8267327652750601              -1.0755196653713779              -1.9760343940647693
H              0.30877851931580724              -0.5712966453310283              -1.815997170928824
H              4.540493036825084              2.4929819997092375              0.8816559538469917
H              4.841103277290259              2.1300296412428215              1.5410958024184316
H              3.8685784668376955              4.234628025832323              2.8531396743474597
H              4.356185974195378              4.7098897446307095              3.034449157198809
H              2.906427788808819              1.8093060432540078              3.290141021659729
H              2.993054646448166              2.099795176349334              3.920330775532748
H              2.6058444944619215              3.9000137811367135              0.7398045891570338
H              2.802310706142269              4.050496012702913              0.055615428405064046
H              2.3265061773670923              1.7550350053258457              1.2913453987977914
H              1.8784058860191464              1.4514954251715013              0.8691337374817529
H              0.685580096775968              -0.8769241172346771              -1.6916747487576225
H              0.5064901804360331              -0.16700172420887446              -1.617800180865914
H              4.685387573575307              2.426659273722784              0.9472596791485778
H              4.790918594122877              1.729757359276261              0.9020123544534775
H              3.835838316237065              4.347397356824195              3.1551677420035564
H              4.408191822574435              4.761909952260877              2.846501453046691
H              3.3585210725512202              2.0420173848282963              3.0603539080652626
H              3.10640864105618              2.049079822213748              3.7937234367672383
H              2.327328032863279              4.053688478984513              0.6338600160549009
H              2.8960007738769784              4.4007281468906365              0.29426957859598446
H              2.421166641741887              1.6692151330638592              1.0487741448168306
H              1.7508274158879829              1.865794932942335              0.7586148867953337
H              0.7223723826894853              -0.9212265600840541              -1.8585448144633576
H              0.5239853047751242              -0.3223152161240237              -1.5686071090862814
H              4.407502544124611              2.186067946113484              0.8153477560567771
H              4.670156746876646              1.7799239965680995              1.3567787234900053
H              3.6063577927638657              4.629185939824232              3.0610510719863613
H              4.351144433841072              4.658566504411668              3.0588952376883616
H              3.5918095353254027              1.9843168685423362              3.4345394911887435
H              2.88775742016107              1.8328988216300555              3.6108147659975005
H              2.710268716064756              4.064676370861691              0.4679306586596533
H              3.0371566172596443              4.428015378691251              -0.08984865207081257
H              2.367405299926189              1.5477506054406716              1.0048208899735391
H              1.7459108418417175              1.5838473472446493              0.6660876750795821
H              1.012858838883488              -0.9997824777764566              -1.991496978040753
H              0.5863885256683711              -0.3927018314581467              -1.7356253855441004
H              4.821415757102225              2.334173848271537              1.1736933560605303
H              4.804847288525706              1.9306393161548179              1.6975258391732837
H              3.805260871078757              5.0149180138420935              2.960519908178395
H              4.450554080469931              4.673922005249027              3.0648261263292214
H              3.1990943344522442              1.6164186729828776              3.1742521353219337
H              2.9224718192414003              1.9906983725026373              3.865479722101479
H              3.0892886342215764              3.891943516853864              0.4836642812042417
H              2.9365456419811724              4.486294135778578              0.09639389093070742
