72

H              2.408584360462113              1.4929926032195053              0.7198842864689662
H              1.715907618600534              1.7606607459751527              0.5775628308635163
H              0.8744453314539289              -0.836286449110237              -2.17570915049004
H              0.8195159384004636              -0.1283208143998452              -2.098633155636664
H              5.400193159789313              2.6495003702548128              1.4645353883084484
H              5.006380736714348              2.029112251180672              1.2775420433549127
H              3.9889972772183078              4.872518654291367              3.0759716511022805
H              4.296801126250099              4.35292139685068              2.702133238062699
H              3.0999339912212585              1.097034612948817              3.63411717639252
H              3.315379305230071              1.6342112362450705              3.2988860355135246
H              3.0256331507403655              3.9766436903591065              0.7977070709302161
H              2.8157379696573783              4.462867289866758              0.3023486265163028
H              2.263427962260552              1.3727107093292013              1.0555097645875953
H              1.6313278900123727              1.5666180781565504              0.8725460614900867
H              0.7678207074355431              -0.7001108666685117              -1.6491974153160882
H              0.7750934443736297              0.008497752396195787              -2.0271492078440083
H              5.489830383822721              2.6249864877977926              1.4297944738865804
H              5.050787525030311              2.1300300263198135              1.2475344954285368
H              4.2771006559729265              4.634988505770973              3.2330153465341094
H              4.512169217195419              4.210434878071053              2.646767864218907
H              3.3601142359559653              1.3505723003361279              3.614714640600771
H              3.2687080920737537              1.838588630806086              3.134752713336352
H              3.095381816709191              3.850680637430463              0.4696997743738919
H              2.8181703034231096              4.537522250719623              0.7043221062334523
H              2.0135824847132757              1.3974518627570371              1.1042286585258816
H              1.9038470162891248              2.1489206518421122              0.8475417255834121
H              0.4180157267001617              -0.7274269633576503              -1.5367376042670724
H              0.4837424267400985              -0.09403133269528972              -1.8584194250886905
H              5.124464784602056              2.6131471685656833              1.0742847785073015
H              5.137985436349674              1.9138715796832313              1.028403849714445
H              3.9387307511589222              4.469886789233423              3.241475385855483
H              4.5516866534540785              4.249433118713031              2.7827448219170092
H              3.547670932292947              1.3095762544288276              3.5194920078288536
H              3.028788771785978              1.7538142586652494              3.3234927352049266
H              3.135751984358401              3.8859142979624166              0.5630405699030069
H              2.8424587984469385              4.572661827669577              0.5305630832033859
H              2.203732804548914              1.2037644705360917              0.9307282950173301
H              1.7635223730378502              1.8642781688467343              0.9264539174838581
H              0.5491951959926468              -0.7209771082761918              -1.6547366767715925
H              0.2771988249872781              -0.1700663567201493              -1.8826198815974093
H              5.115947414265151              2.3742185778499802              1.4599505600357974
H              5.100401376459907              1.7272363551366172              1.3040265215821694
H              3.8947082426297577              4.716805140682296              3.3935380067310597
H              4.279809175695328              4.319513725176823              2.8383047684566423
H              3.1414216764855953              1.1893281988994218              3.301789859842112
H              3.0785606269482857              1.8712622808924837              3.411053799480934
H              2.9916766764060867              4.162734741794796              0.7034234540848002
H              2.765731440752591              4.55399931480626              0.15210825105398348
H              2.434381995534413              1.5397337945688516              0.9280741517551253
H              1.6912168209282812              1.722068104888154              0.9547089669474856
H              0.8610080711826155              -0.645925235889839              -1.8386808072121112
H              0.18036009955089072              -0.1759056700267828              -1.8383947627097514
H              5.418085288968014              2.440658668793756              1.0730957564461243
H              5.224138601694261              1.8887453584337124              1.5293396746230437
H              3.835567596882464              4.816463666250663              3.072693486718957
H              4.457422131847982              4.715019665433296              2.6280417884153926
H              3.502022718339521              1.5888112782043193              2.9661552245599028
H              2.937728065561895              1.9313600323635336              3.3657432045759075
H              2.8953371174116604              4.231770760089758              0.6773382970102187
H              2.8697846472959734              4.8433201651858155              0.28479984299560934
H              2.253977259964062              1.6505681607657752              0.8267834278476123
H              1.6476275281377724              1.5140649278584575              0.4656525286577277
H              0.6327063825211635              -0.6926338041285476              -2.1590892864516467
H              0.44997154685396695              -0.007008495903715443              -1.9631353003510132
H              5.4420282694178              2.516763695580286              1.2047370388031886
H              5.016413138149573              1.9372870717108746              1.0259956247244175
H              3.7263721487078985              5.10158729340424              3.029117223272464
H              4.173164463637602              4.525609923008594              2.812786553376019
H              3.4121404461812546              1.2952954294663186              3.0502988665752055
H              3.295840522579489              1.8792298337181306              3.423975638370583
H              2.8176378205308374              4.009582894527436              0.5152178848088786
H              2.7635875523611073              4.70511252001478              0.39415898936497673
