72

H              1.6750862699678624              1.1681241040612422              -0.5579670393181786
H              1.3197014472269584              1.2736155127283324              0.029288590304259576
H              -1.8759523240858174              -0.7441520179957397              -2.4627621373455173
H              -1.3612395670307873              -0.891358665531551              -1.853778304009229
H              4.022488999527527              1.7330584911428397              0.8744336673554653
H              4.578393794804213              2.193347096150651              0.9163743679379879
H              3.8021545176627187              4.327593117349168              3.0875427459923093
H              3.9199027084823457              4.161734967260594              2.4159013843817543
H              1.4080190490584843              2.202289281616761              2.2417164504551534
H              1.7871939485468684              1.8474975899682873              2.7185992767413536
H              1.7291575197826778              3.832582965976138              0.3371598301016805
H              1.5404264830633272              4.153223732305259              0.95156544828081
H              1.8396936373004775              1.089705870996967              -0.505398749342602
H              1.336178594240963              1.2280084505770565              0.010897774402566465
H              -1.5538061586579954              -0.7225822919421481              -2.4488449852827587
H              -1.16072821165437              -0.6405550941543001              -1.8712712481237663
H              3.709532070790607              1.7251584305201741              0.5866061997875217
H              4.285255442044101              2.124100549931321              0.867489839737437
H              3.8560621371565937              4.222730776476659              3.2618230081257975
H              3.836329822072098              4.330023181717099              2.5523161376306396
H              1.5279372825270376              2.3491072211682194              2.420493650425852
H              1.9036118669009672              1.8323788323004178              2.7864420908873395
H              1.5850408062877224              3.619982349406261              0.07074973871558002
H              1.603163319952126              3.91392342832835              0.7613463662855859
H              1.8720083915447803              0.9694400280951042              -0.27898845050623655
H              1.1731657861609652              1.1157770322752478              -0.053024175905180534
H              -1.4884929586406666              -0.8264636040617022              -2.523184205687745
H              -1.0561307751928855              -0.9337794179340106              -1.8555843424881548
H              4.212805453438633              1.6448317292854886              0.7570006352538741
H              4.535458007287731              2.2861589483821447              0.7907162862398207
H              4.057704262556239              4.6524352574213514              3.1030153503152182
H              3.7321588139102024              4.265097090637479              2.5584065000162757
H              1.5861559624017498              2.3257145191060316              2.4178026491321543
H              1.7444991840955033              1.801648439338171              3.0178829256714845
H              2.070480060848563              3.766806948066011              0.2541690362459341
H              1.5412210631130672              4.127851752224667              0.6067256946348099
H              1.768758422242762              0.9361139493457936              -0.49614772689349734
H              1.0987621968364978              1.2103945499474573              -0.34571154596137116
H              -1.6587354307420994              -0.8196071075969721              -2.6029625014095346
H              -1.081701015937861              -1.1226706775067432              -2.138687058926061
H              4.341168704442243              1.6322998478629294              0.6882514355999613
H              4.497205127803144              2.2624681047992254              0.8846110747183511
H              3.888136692830975              4.593502405514208              3.2155644755298964
H              3.590777003915139              4.20994820203148              2.599307418063195
H              1.3580570156575469              2.4115352171014894              2.628694012937598
H              1.6924165311739474              1.9466060690504006              3.0123888216623596
H              2.018587626483651              3.7097710116914193              0.29952438959557687
H              1.4170060360410632              3.86840801770277              0.6580621209348753
H              1.3066192185549643              1.4927020834122326              -0.6401527027416849
H              1.6177977095234926              1.114552775857131              -0.19005983953688949
H              -1.5856432840315227              -0.764382852487649              -2.3211019760798566
H              -1.0951971916448897              -1.1176281821197978              -2.0549017279961173
H              3.8493635036581364              1.7480009528916114              0.857659500755874
H              4.272260193538011              2.301367089749567              0.7731886628117763
H              3.943259669193455              4.22034190625035              3.0772054395796
H              4.141057370515797              4.384719763604999              2.366391075566899
H              1.4947579114124188              2.038264936487713              2.617933330540839
H              1.7788417673442014              1.9665066322364315              3.2225903222030343
H              1.818330377989873              3.812282915258813              0.5457798133292303
H              1.318395882534029              4.26050003106773              0.9888542248578789
H              1.7389176781820816              1.0946583953875735              -0.5722401187662117
H              1.2903196648386273              1.495914267695397              -0.11654146158492235
H              -1.666133641114659              -0.5635664534469735              -2.12962244990151
H              -1.4218679836014656              -1.0730401410814445              -1.7704205316168102
H              3.7879804489607567              1.8073379958902749              0.7204314557920581
H              3.9698701635793716              2.3523327854229517              1.197201067315222
H              4.116092279579265              4.271988276179036              3.058262811465077
H              3.9007030939195575              4.085900945250998              2.3742116777226188
H              1.745964471786277              2.2923944153552482              2.763414505754363
H              1.5051244678700202              1.654510139679661              2.7782758761539514
H              1.8624563692573721              3.803056987915182              0.5907578086172759
H              1.3879186400417443              4.0773208798140015              1.0780071080156604
