72

H              1.729935964170325              2.007683478250237              0.21018084351196498
H              1.433781359792545              1.46748368641816              0.5238166527954583
H              -1.0899476396834122              -0.2912296895053339              -2.2126715177655867
H              -0.46581072007108965              -0.2193191587176453              -2.1831813633851054
H              4.276966744510879              1.8466364642813702              1.0093241253322272
H              4.683191858109108              2.332429581033894              0.5915113126906737
H              3.595319276224393              4.197091665477061              2.7813309052877475
H              4.037121739447029              4.584696544288522              3.1891647045993414
H              2.2328061268358748              1.411859953117521              3.0759047703001094
H              2.754080966031356              1.9232981762414953              3.477871153162434
H              2.537766636122923              4.445548012141943              0.3418896902427909
H              2.2085656601296684              3.9897217760812507              0.7715441822792644
H              1.7234134836231483              1.9525628421053474              0.13371655293422804
H              1.554696747579443              1.3356765342302874              0.4940091326044708
H              -1.3132172316454103              -0.24005489698489907              -2.1021793095767065
H              -0.5737837520271342              -0.052953768479551556              -2.3635774140984456
H              4.674905466333454              1.8234293140357523              0.6826934535732134
H              4.3361901341644025              2.530189816263041              0.6778072605506241
H              3.483844839224977              4.366146279368592              2.5378398626863703
H              4.031364331798642              4.71412263353542              2.8912916834301186
H              2.2295893524798363              1.4068667340069052              3.1743076454650097
H              2.6729685462644737              1.9035105359984144              3.389296238761287
H              2.5930878942057505              4.184232076845233              0.41692777333950215
H              2.0232318345397617              4.177072122432914              0.8655536013768949
H              1.5479694482266095              1.9990822065271214              0.19864049552828736
H              1.5037718179962034              1.3019304315120008              0.3707907640699391
H              -1.4217860658308812              0.0004372121324109597              -2.237905406778173
H              -0.6894688972499066              -0.09501214011827161              -2.560302897420798
H              4.486029865014976              1.815630902419959              0.6747827819253933
H              4.447863328334048              2.55330726211711              0.3670462176125338
H              3.4742766447728295              4.392365666512259              2.5743462715397927
H              4.121930617061355              4.603620034273908              2.9890894375738175
H              2.260305179997057              1.4641435338943825              2.8544201992143576
H              2.898716681442953              1.7532113528646804              3.2150662716391256
H              2.526957294565759              4.413784253489748              0.31968130185122323
H              1.9554979463762958              4.544996718894039              0.864481382736602
H              1.772992013651438              1.7008645145993144              0.20389926373916065
H              1.596269049259581              1.1335821131564725              0.7715664646208603
H              -0.8929332118509555              0.06571281457497599              -1.9402740434380532
H              -0.40912176951029466              0.12935190587489298              -2.446426023159346
H              4.12729936497577              1.8669707770030237              0.6437925153926038
H              4.289755796461302              2.5838299442089063              0.6922362335312543
H              3.889437823013266              4.089137857997592              2.5731546910706617
H              3.890843184142896              4.427265591669977              3.2780163401458604
H              2.2036619583146932              1.5073722178537066              2.8664900144245262
H              2.86744471373591              1.6559939030384476              3.0565145760066206
H              2.2653533042688587              4.396061832502574              0.21413015818250739
H              2.403961801830441              4.208900966314789              0.9033739343044986
H              1.5879912733097654              1.6811303667835014              0.36934328793184723
H              1.5079560857618945              1.3724980632776422              1.0451713226345947
H              -0.8988554502271213              0.07971234875447596              -1.968508839378032
H              -0.2105066369818759              0.16095266580565265              -2.2138589100613806
H              4.846393997680636              1.8410835266102896              0.6522983776907074
H              4.62789324830982              2.5904910512985464              0.4062854535574032
H              3.9882944181434854              4.182125990098237              2.5103590194033436
H              3.996257106406727              4.512175632601713              3.227163928473063
H              2.5601990668489663              1.3297088787986762              2.817001134462449
H              2.7280446114871717              1.902528693339101              3.1445069332980835
H              2.6860090592695003              4.106960765468599              0.27151034484837505
H              2.39752464506617              4.524519901871959              0.8337177514845826
H              1.6994210497126134              1.9827135314986              0.279225471050859
H              1.4664739735489227              1.4215711087564402              0.6959863360978858
H              -1.0666084130619022              -0.0435894769518114              -2.2820956661939293
H              -0.36657542127254744              0.03631113228008305              -1.9755504526385905
H              4.42637842040275              1.8226397175180467              0.5618958434807244
H              4.675614467558022              2.441866096586881              0.18169922448079814
H              3.5621801495793215              3.980722015685941              3.0110063619799563
H              3.974388126380116              4.6011595070503315              3.2278336972848636
H              2.506877895912553              1.6562783278350839              2.7854516293435436
H              2.685319715079986              1.9893492586599912              3.395753827297272
H              2.74453342818246              4.204327975165686              0.14521525057628168
H              2.1896894906449993              3.9804609715382813              0.5762273355402512
