72

H              0.9836823323935382              0.7972527971967815              -0.30811035939281783
H              1.0042306983548914              1.3709489187838408              0.18804866574663112
H              -1.314026777732645              -2.0778229461048716              -1.982504727633709
H              -1.9549367833524451              -2.1330227722280464              -1.7040766223369894
H              3.666384980867101              0.9807238575597321              1.145979044469047
H              4.121558103811151              1.4933943931428004              1.0109133254375071
H              3.8227451535618737              3.928299168289692              2.6668179393139173
H              4.411890324914055              4.13598569237943              3.064979013833413
H              1.581099957130221              1.967763979653126              2.895835171270097
H              1.6628159581977222              2.201834062360001              2.2244992669604886
H              2.5662926605178873              4.127527962228817              0.3356187887350483
H              1.8690277017230585              4.015151776801163              0.05447255703373677
H              0.6848489550822248              1.0210790773275187              -0.23142969897073773
H              1.3046374788145818              0.6476249673320759              -0.16894683698089286
H              -1.2937160538171302              -2.261314183123184              -2.2699451850242935
H              -2.0992036591893037              -2.1990784253515288              -2.0178979301848874
H              3.939003796702625              0.8784903372411161              1.1616563358218948
H              4.492074060924347              1.4558958582608792              1.234301020813095
H              3.6665409642751623              3.940392237405593              2.6623861185575666
H              3.9252043574571442              4.192884948567814              3.3148794718067554
H              1.2216566538813745              1.9434903280035054              2.5676327536611816
H              1.830077675266921              2.3057054577084926              2.5212057648277497
H              2.662271504993849              3.9008621358821576              -0.2507657364644476
H              2.064997242115784              3.927496942078504              0.11524102090682804
H              0.5567026698940184              0.7036016941270263              -0.33892634061387933
H              1.248736236397188              0.8247654072916968              -0.29847942308141834
H              -1.0691733540265154              -2.2733063810116425              -2.5670881717872915
H              -1.610388931677066              -2.267509441335622              -1.9878841901914763
H              3.9751197026289242              0.8459426004677796              1.220918826922108
H              4.3585596236329724              1.4295486013459011              0.991047397066468
H              3.5303085512608305              3.8858381425986916              2.613914331878651
H              3.767882418643377              4.287963844093357              3.1196286281447776
H              1.8768421786944554              2.1583746640152923              2.885086793890118
H              1.4312688478841014              2.3187812873469373              2.266883857919219
H              2.539152208473531              3.957506361403179              -0.301633348605024
H              2.041527131090136              3.876428926226867              0.26083195217083416
H              0.6319035184503036              0.9911551243408085              -0.3322677622998549
H              1.2899951333966582              0.8308140228629921              -0.5814629283403693
H              -1.1054365853331518              -2.1095125759040756              -2.3312385837286755
H              -1.6382091832467314              -2.447578016053108              -2.0316815394263457
H              3.4595391392835055              1.1862571641911759              1.3041012481091123
H              4.070063232280503              1.388663726519101              0.8837326164286134
H              3.682717213199477              3.9742244522538837              2.6199403834378847
H              4.204848064382822              4.215718052092228              3.0504015029897826
H              2.099793969830498              2.3203369832350016              2.9000634752349534
H              1.6581916147940672              2.055045205437629              2.366726415782269
H              2.6901531769655738              3.708969134160413              0.15106691187894267
H              2.044819257883967              4.097126500949659              0.3866415329883076
H              0.8316614275236033              0.9580503009070976              -0.18721598910170478
H              1.0859726989060727              0.7878797886457801              -0.7764186138876941
H              -1.2105991245219387              -2.2864663867269157              -2.297095854221886
H              -1.8350846123610736              -2.493242830402671              -1.8187681484841136
H              3.8668301508278784              0.9235685806027687              1.1789031104426477
H              4.219307750615188              1.521833059809185              1.2240579216352314
H              3.625549832482425              3.88869321845763              2.8295969996745796
H              4.275886226222862              4.125236452578121              3.018769791428811
H              1.6279312188606851              1.9057299407403443              2.8450507306792323
H              1.3668714462578933              2.2543138799099403              2.2406578951978884
H              2.6100001531010375              4.414378665826134              0.2556500771946828
H              2.079893888063469              3.988772158575409              0.5786660690327537
H              0.7956020571588855              0.8996242014105097              -0.42807467855290854
H              1.3361164258045284              0.9740011179049987              0.008097592058257767
H              -1.3620660382490692              -2.072512335058269              -2.23364933263906
H              -1.7751830761097123              -2.4654613349386225              -1.740974018536972
H              3.684316856607183              0.8189798096727416              1.3374188362412132
H              4.249838618152967              1.3120364763806336              1.0545080912807558
H              3.845968251870958              3.8079608216910876              2.7260928770281594
H              4.265490498229105              4.145337341532167              3.209789939456438
H              1.3239005841166231              1.9786034200713656              2.7809510161427924
H              1.8331698094045237              2.2908337420206886              2.220167225723041
H              2.40586691065138              4.358700424490668              0.41334648433204707
H              1.838527336956766              3.8420535859539364              0.35864625693096586
