72

H              0.6900450626392701              0.6178879469652985              -0.4831044067650932
H              1.390367757251314              0.9306468724084811              -0.46151959416023836
H              -1.4827726740463223              -1.5443312657908743              -2.4853575952997735
H              -1.586135569704484              -1.7721061422922477              -1.8678297246863442
H              4.144302365920982              1.2097450903657947              0.7123763460131812
H              4.1117344012943855              1.9527874798795886              0.7963937558014622
H              3.959868666222491              4.354828074877958              2.3599453654567473
H              3.9557799338471638              4.312711843381428              3.138511071755998
H              1.6464592962706435              2.07032342653661              3.0540759868683796
H              1.3626323953592898              2.0674196273809846              2.3967198372478977
H              2.422216041571273              4.179162032877004              0.11561112164906631
H              1.9017607175803026              4.233047966856552              0.6328789098833156
H              0.8844591603393698              0.8795761309024199              -0.14316118767062258
H              1.4867902660918808              0.7289719115234928              -0.5596756283620474
H              -1.2062407176419057              -1.607252315074541              -2.34701281695093
H              -1.490399043121575              -1.74160901522816              -1.6406589602874129
H              3.643396307153264              1.3457430835368909              0.8408697888284535
H              4.0765309854277145              1.9059173942188596              0.9702363001097213
H              4.271226496979988              4.02057468121796              2.5656939870875397
H              3.813237871157661              3.8292570100714274              3.1281886931371443
H              1.3154411971014608              2.2245542309926436              2.7754713934077593
H              1.9449958042562498              2.111454357787892              2.4202673765466844
H              2.3632236929166233              4.124549332552335              0.1882273592556588
H              2.083690540939792              4.082669941085896              0.8366695652997669
H              1.049685165181902              0.7915606897245819              -0.5400489896037526
H              1.438926368782611              1.343317291417978              -0.22135787608369958
H              -1.2147170133042442              -1.7232855238599543              -2.109948951487088
H              -1.519385377045676              -1.8601930714904742              -1.4152720426262486
H              3.7054453525062234              1.3093572722576023              0.9888066218717614
H              4.1125561703918025              1.878725694490667              1.2507971728681566
H              4.025870853007145              3.9651000038130984              2.328762853322111
H              3.98722438112107              3.928586291636293              3.08276046378599
H              1.232360777348085              2.3205370725930803              2.780673448075692
H              1.7966796885209901              1.8018304223463313              2.5962800293176436
H              2.475851973046302              4.188581853627518              0.6719694830280236
H              1.9042229776794501              3.8053210229371155              0.4858399808907829
H              1.141204953217445              0.8199155512356386              -0.7019822573258733
H              1.5843514196740687              1.1738147813260909              -0.2825680660811311
H              -1.7412899990090662              -1.8155639176079996              -2.3766839873210666
H              -1.9865986578737318              -1.9677046073733997              -1.77153442086992
H              3.5255558787917636              1.2929962088140867              1.0835630338077882
H              4.187099718774673              1.5541760404208673              0.9747247074932587
H              3.6771727072164277              4.471200686827575              2.4608919000987632
H              3.8284719776122422              3.931089964152094              2.9124782004076977
H              1.4140924873343854              2.124154789540989              2.5846614329906115
H              2.0771097902144704              2.1134325157232716              2.5188373358930525
H              2.4835450357219817              3.967609730852184              0.6279094902813437
H              1.7465199481073648              4.099087862746238              0.4605628583139163
H              0.8042190442979814              1.0544552618173293              -0.47614070841012907
H              1.5070065415629765              1.0156860181636005              -0.551273956523931
H              -1.711196613611554              -1.8222865577456595              -2.5749541454839213
H              -1.9483464450043098              -1.9082865580061275              -1.8330709256292412
H              3.4268686869940566              1.1596784945832237              0.9390276372684223
H              4.042022843054629              1.549130384110044              1.076595930391964
H              3.771313188299498              4.647890120188805              2.570434149944026
H              3.6109824195154787              3.912546692359366              2.9014059389917795
H              1.4914995223617236              1.9184641788338237              2.7539332273794623
H              1.6361986929201116              2.3958964919113765              2.2183139047912412
H              2.165368954732509              4.099236421845121              0.28556340771225114
H              1.5754738878565506              4.211911699867899              0.809737709635194
H              0.9919669787891636              1.047575793863472              -0.7047375232593832
H              1.4606528912351464              0.6750916158058221              -0.33753337903907477
H              -1.5565037624909372              -1.5077935846311192              -2.4556734843074794
H              -1.7624182018603296              -2.065865433435539              -1.9977622345232036
H              3.8083322157102426              1.1125974534387848              1.0711573244818402
H              4.080777191480071              1.7640879119289161              1.1693775524100058
H              4.088762522967917              4.5343103396771305              2.4250681568157972
H              3.7959364415072243              4.3672686502058555              3.0648077547186228
H              1.2977746911467505              2.1594052686223995              3.0047205465009976
H              1.7741688295937708              2.021286523191864              2.3082385301163075
H              2.263326209878904              3.943062800588034              0.3277862117971978
H              1.616260139628407              4.155230729120099              0.6784549059168818
