72

H              1.002235991163065              0.5804270664790039              -0.4493690994886449
H              1.5247380238479809              0.9263360117126793              -0.06095750733503183
H              -0.9851343754974505              -2.638763732116467              -2.032831117419732
H              -1.7671476183757477              -2.940973541486482              -2.0891829576090495
H              3.8239586652529125              1.0370516477649385              1.5235289176422087
H              4.488948140904354              1.2497814731574048              1.5210064008811495
H              3.7087446746342363              3.5601336937897665              3.2176282665575746
H              4.225433484377629              3.9986137648201243              2.99401939170807
H              1.4757314066507217              2.046926546307827              2.2063702079503185
H              0.895276817181446              2.2707284000983017              2.5641463373236713
H              2.69966449407643              3.747760786496806              0.036929599326820814
H              2.0045352900917655              3.705879363032065              0.39436055386284685
H              0.8669503221321536              1.0229181413722552              -0.4656912711179799
H              1.393689994336449              0.6215152881467333              -0.2228876727221921
H              -1.4691664136596851              -2.449563390309839              -2.227781979140716
H              -1.8239616941141765              -3.0326816424955205              -2.30472606644691
H              3.8151725183298413              1.0528103062794432              1.5424723181967621
H              4.475785789801427              1.2309988648192025              1.2526593728015167
H              3.6371579693512497              3.9433554062321017              3.1921938235957437
H              4.205141223096492              4.270612813167092              2.9494635413896244
H              1.652746831051776              1.9991211760605063              2.5785285982145414
H              1.2556497896895489              2.4952024929264343              2.437930863931488
H              2.6461108894895              3.6553826774984337              0.02759812160540748
H              1.8506644683920213              3.6076666020647634              0.061172444259990695
H              1.2089571576025266              0.36498363559664526              -0.6087547092767068
H              1.147556290349145              1.0819654744747178              -0.28656159857981633
H              -1.2971212495327478              -2.446995918946624              -2.44637695838458
H              -1.891303217069945              -2.7697883344537595              -2.289463632261047
H              4.037449584332343              1.2031927745671895              1.3565191655472324
H              4.552180243797672              1.4256075488573334              0.9061433733668971
H              3.6066015061608256              3.904995886387369              3.236562858194803
H              4.194289752659012              4.2233896058241545              2.926054221177403
H              1.802253179245918              2.2234496115173252              2.3162317199550944
H              1.1274409602273503              2.5566644223923785              2.495705029133133
H              2.7057847584850796              4.149444548400734              -0.11800021107540959
H              2.126068683333983              3.754792000895245              0.21926238443203538
H              1.4264095057331765              0.7425193537530682              -0.7149129708354947
H              1.1668444998463379              0.9878074901873737              -0.04842016776670822
H              -0.8505061690814945              -2.3019924501283424              -2.130944376971941
H              -1.5520204662293606              -2.7057853799032148              -2.258401793801525
H              4.1574365330224605              1.0692632837099865              1.6066505767554022
H              4.535129693842422              1.4881999768362428              1.0005947523492134
H              4.036705605026086              3.4615591166257604              3.269242072140757
H              4.17961796085027              4.131677309603722              3.066251252752987
H              1.3689544520554482              2.3358940874753404              2.8843188239046436
H              1.1775642704598719              2.491742793181861              2.188848513233668
H              2.86553597615607              3.866682184248761              -0.019994173438771013
H              2.182774625940288              3.635510366990475              0.23782861094849667
H              1.1137711302275914              0.6976969227223683              -0.6954465552745469
H              1.473053999264371              1.02107235129418              -0.12253054444688317
H              -0.7672671918696242              -2.5593614929734065              -1.9218831413866215
H              -1.439801463208996              -2.4076526238396387              -2.0706560441032837
H              4.125430738877943              1.2123871497438075              1.581366914405005
H              4.282557348060732              1.6850961819573909              1.0365454970712502
H              4.105924705234558              3.7148538302471525              3.300117834400807
H              4.353586692791785              3.8800091694372              2.7119448075399974
H              1.632218171704093              2.3082495767495894              2.734386120966549
H              1.321443923670581              2.3017922624438385              2.0487687581369705
H              3.0446939672225937              3.844842563425725              0.10850088252487233
H              2.393173563359248              3.5556015069797406              0.28635962094003853
H              0.9598134509193941              0.6681046521297133              -0.545012476086284
H              1.2841029408209645              1.3061601918255639              -0.2506694235470723
H              -0.9987443516344358              -2.658774863327314              -2.0021681189531795
H              -1.7294512963901625              -2.5583107314333735              -2.1648383416668793
H              3.5783148428016593              1.4151755038734863              1.418266068063902
H              4.290188796877735              1.259645660009181              1.1424180972625897
H              3.8341571762362388              3.4902929881966505              3.3162642982555717
H              4.358388552963493              3.9157812591626713              2.963432111314331
H              1.6849811695845318              1.981632549376141              2.5452250698139363
H              1.1112544823703132              2.341702771478387              2.0840331671585735
H              2.9492006567952425              3.6341848374930037              -0.058934672151463974
H              2.398271419523699              3.659838628250496              0.43914963001226714
