72

H              0.6319675395892048              0.8626448250869876              -0.4999987559035141
H              1.3147467657246732              1.2037219284318468              -0.23103999754817656
H              -1.5392306776165812              -2.2112085824846472              -2.3644488507035155
H              -1.9536027709955024              -2.328792138170991              -1.8615827694021672
H              3.5934989265171917              0.9521358361658866              1.1513592225432479
H              4.219400570437247              1.3602121548600627              1.3289076963102358
H              3.4676143532627957              4.042476583917158              2.5335279514255595
H              3.823437382635245              4.010371107548267              3.2195070989287533
H              1.3857022548222395              1.8980909257205762              2.643375456314933
H              1.900699293774882              2.289979635864688              2.3331728226882342
H              2.555325102477589              4.048924526541455              0.2810449877499894
H              1.8374149935309445              3.850464601321277              0.309995080473824
H              0.6951774124659736              0.971545769977287              -0.586419402912137
H              1.2600807042880706              1.2539546917762219              -0.12128982125623522
H              -1.5243011274434284              -1.9916108053052874              -2.5178326030474043
H              -1.8822923429734286              -2.3920361310791236              -1.8429221142208738
H              3.485281142449044              1.042752874321124              1.2674989572066018
H              4.090202118134858              1.219657535102868              0.9348529645446099
H              3.6650909194292107              4.4939736469234255              2.4724967621435994
H              3.9417356701970894              4.029523521400191              3.006258578156151
H              1.7940054525573939              1.8904147365123682              2.7580534463144075
H              1.7986541322141762              2.416809708334737              2.2248257785043473
H              2.3187185974592417              4.083955795212201              0.3116173253768035
H              1.6026777553964466              4.206862853115691              0.47923512412930824
H              0.7634334492933007              1.2602291282192093              -0.4842460363225204
H              1.1534848984953583              0.6993834877689741              -0.4413662594460138
H              -1.487561881039663              -1.811378685252727              -2.3095440648366377
H              -2.0109412000666307              -2.3174791872144995              -2.043007807033056
H              3.826704079752875              0.8774971038351389              1.0053336232088632
H              4.060374590175427              1.5913795580445356              1.1265079585537447
H              3.770066519891359              4.261272206149631              2.53790960574478
H              4.096716291398282              4.359786785858616              3.188650246066265
H              1.4988671225927337              2.0138743051747254              3.043678062386865
H              1.618756448992045              2.158573389842354              2.353350612653791
H              2.4584528978212603              3.9847779013997027              0.16528826663747545
H              1.79453894486056              4.211280104188307              0.3737987012054571
H              0.7644300875579924              0.7846704817533239              -0.11537940500885158
H              1.2396230362273841              0.4493254571582232              -0.5322816334004132
H              -1.284008623242079              -2.0256213579613007              -2.456318164201476
H              -1.6737132866222977              -2.056399498459722              -1.9294424915550248
H              4.276575141731178              0.9399950645997122              1.046219776009303
H              4.3743703280052335              1.6221337041436235              0.9546748665803481
H              3.8044527446364955              3.976062756542968              2.5519767755570504
H              4.0145807574965025              4.3656194077554495              3.1804447030384844
H              1.5863752718161859              2.0192806816185835              2.9407227710663983
H              1.411375485525112              2.2368289233820113              2.2451359043701937
H              2.5285640375371474              4.398034043020144              -0.04867108529060625
H              2.0756831864495364              4.124984717928296              0.4861085911486022
H              0.708143081096284              0.6999776695163736              0.058778536969017824
H              1.2558016841873412              0.9639824848997779              -0.3131013916731606
H              -0.9846158034103212              -1.8621133987294136              -2.2139990179614677
H              -1.4967691086669257              -1.935026033123363              -1.670092765868839
H              3.6160824084494547              1.1098126525725187              1.0885876868248854
H              4.002650205370818              1.701633613187567              0.8453446171586493
H              4.053110275648895              3.6482588102915683              2.496283713882461
H              4.046720035019839              4.116680555978446              3.2107055791420103
H              1.6704051278427798              2.2604133187649182              2.9815053227833035
H              1.772688945210055              2.0333581988040277              2.317235798171443
H              2.594748139574106              4.041924669937933              -0.02373824348091538
H              2.0800681184873455              3.865861766998128              0.5567262810526042
H              0.7879244631861686              0.7238976655598169              -0.14937136771785003
H              1.3321234163758575              1.194051559468068              -0.23710336843276525
H              -1.1428937539268005              -2.173005140950624              -2.00817339257411
H              -1.721380645093532              -2.056034969758649              -1.6241868194806879
H              3.589098868376354              1.2684199877636875              1.161105896950711
H              4.122493406130472              1.7076285864209717              1.2014567224306218
H              3.75445032904234              3.843582016793887              2.490889068208108
H              4.275927624319979              3.94625042924235              3.018640953660017
H              1.4604025934126799              2.0770516473775382              2.849165762957455
H              2.0251819829910573              2.025469793130351              2.2238599684869
H              2.820746322676388              4.112841752229202              0.4790359767125534
H              2.1008638779188766              3.9470466900754513              0.3134636738072571
