72

H              2.2989347055426603              1.6182874078795468              1.346395539246053
H              1.765133487309655              1.7031406420199013              0.7642895778694953
H              0.3973512739477466              -1.0634492560062863              -1.995125982664411
H              -0.3258915308515796              -1.0861286738843403              -1.930122471053516
H              4.695326806407747              2.3569858073389027              0.764707403636179
H              5.072988775017644              2.5121706975041325              1.3691916496082726
H              3.73401794462081              4.619036293867135              2.5429029303098383
H              4.372614157301091              4.840744662647662              2.9175277706245817
H              2.699310213929971              2.4367223322375797              3.3703570043345468
H              3.371021625315361              1.971283451550214              3.6952999191175353
H              2.603203806044575              4.641863496229125              0.4276469814540251
H              2.76205578147078              3.903521481459438              0.25915450689244024
H              2.159381094281635              1.4209372426683198              0.934897747412873
H              1.559230912951452              1.70621060700163              1.1501413864845236
H              0.41264721239263014              -1.2114879324232701              -1.9606634852210787
H              -0.3204710099173763              -1.112684496444487              -1.814147136399411
H              4.876107481418152              1.9384617815489233              0.7180450673541285
H              5.060187219328509              2.371768865077876              1.2970632732437712
H              3.731533508047267              4.603401016187424              2.7454424451671344
H              4.268953251940251              4.606192420423742              3.195731037927556
H              2.770049604851152              2.246929429378838              3.487699995778906
H              2.9578994857944467              1.4652108418068468              3.7149330522194934
H              2.891346174346062              4.626563736817051              0.21623366543595277
H              2.803099028639289              3.884541358861361              0.17115189722305715
H              2.0827002480765353              1.6508255701060393              1.3008355195657688
H              1.6215134480710058              2.136954516277133              0.8623375743620099
H              0.378113706581518              -1.3609581445001058              -1.6847766343120447
H              -0.3730826040383659              -1.0442148539767446              -1.6846183963813568
H              5.0532210694371695              1.906981692885521              1.019628728082938
H              5.176559541707042              2.560439146724431              1.476806630779659
H              4.343134187238398              4.596661967697343              2.575610671402228
H              4.3417976625754235              4.72944883448468              3.334923114868723
H              2.318288240230249              2.277447790812481              3.704239989287552
H              2.890561197894997              1.8936990189414136              3.8703095710558584
H              3.059275050340745              4.607379005925319              0.3453624581047258
H              3.0708650666724093              3.878594120612047              0.5100644923991551
H              2.1354689763803614              1.4056017255218403              1.3064311133734996
H              1.624301263924648              1.74309497300033              0.890479102700725
H              -0.0036523945967744946              -1.134256116333493              -1.732644379904105
H              -0.8179029008974484              -1.006841154764876              -1.4456293619184177
H              4.7401627000886695              2.140485638445283              0.6819482476764268
H              4.895522024516852              2.645125296455771              1.3033412808923412
H              4.227197283531657              4.739465734005777              2.561848876587967
H              4.274560143915085              5.008917061048653              3.237735220671368
H              2.296368001301244              2.5581122688243676              3.7524367716255522
H              2.957955481579359              2.2504324766142614              3.720749666388126
H              2.9284134243248143              4.343262048251826              0.18180100482417197
H              3.0781679821815398              3.8744248969427866              0.7911449175519237
H              2.3678706621190755              1.7006590181768981              1.0712916437225841
H              1.6694547384472513              1.5439308434415109              0.8804428335248629
H              -0.08604689885028212              -1.1345676030323886              -2.106005166866967
H              -0.7123220752931828              -1.2073710344036528              -1.6964890353393727
H              4.679583081296377              2.1013642780857342              0.8001684684704479
H              5.146093865049184              2.6232204928968548              1.1021886119036202
H              3.8436092537691477              5.031298999158              2.3927170993241376
H              3.893208530085649              4.822797666249785              3.0524091741193162
H              2.328867695532673              2.252348438431944              4.049190825996001
H              2.7733961181965903              2.2381984988260926              3.489358186097999
H              2.7622412932339238              4.187238760885322              0.2601980010460465
H              3.0458913124216727              3.8208352626243447              0.8040401727673772
H              2.501085513225245              1.4721633312150495              0.9454861040693039
H              1.6884699756812072              1.43539502553479              0.8520198076498834
H              0.2939588800034115              -0.9517608741267961              -2.067767886818584
H              -0.29842553172858965              -1.3002373944000936              -1.9358560510780718
H              4.923174405574116              1.9990720211933133              1.1846953557184992
H              5.071124512727084              2.686232792441693              1.2278871333483232
H              3.7074791645367653              4.799049014809716              2.3492671630284816
H              4.041596860496912              4.6938614957718485              3.05258479933271
H              2.444943993686859              2.768221623259706              3.590010217291703
H              2.866305309661979              2.1855140161541535              3.73685809867618
H              2.5117030053067757              4.248475130072911              0.44322637914497787
H              2.928827959381608              3.6751797595548292              0.3009653853713971
