72

H              2.316434862750568              1.679802718666704              0.7389376993910568
H              1.621169064877922              1.6545234506253494              0.7741470016190666
H              0.16172032287168628              -0.16382177613898577              -1.9203123042981014
H              0.44757710025411745              0.3447323891745232              -2.3577256962320283
H              5.307815052881192              2.263413251672791              1.0823340777347725
H              5.027237088025704              2.6684200994251177              0.5809105506589971
H              4.5195594909199714              4.684948175173096              2.938025351657019
H              3.990529666806799              4.177920449941605              2.9582181541800434
H              3.480402783541078              1.4429974319031353              3.246459694690164
H              3.298675127116006              2.1153025907454484              3.008678265850364
H              2.9508495933600316              4.436102142985313              0.2738157589831916
H              2.7099685387091874              4.5848601294336              0.9646516205351253
H              2.3271773328931658              1.6446502271354029              0.5764647447428083
H              1.971355096598659              1.961463311211267              1.1315636226488257
H              -0.04723938497936984              -0.2738336351960416              -1.7301538915801657
H              0.3758590623099408              0.19175888768217875              -2.250800467436319
H              5.27591145233573              2.2815110162781864              1.2037648839187751
H              4.807396204706736              2.596467307765492              0.6701130841314629
H              4.460648791891211              4.330926757696008              2.9938103438501336
H              3.951161430882846              3.9125262058230987              3.2462132058961193
H              3.3608659550615845              1.6266818708206685              3.2327256399875997
H              3.2574791268649097              2.3078236544334105              2.9411038586284852
H              3.257436895562339              4.2453743057759405              0.13061966622135548
H              2.7013789187335386              4.402450748876148              0.6394660079256942
H              2.350360780268489              1.6222482353461938              0.7179465154311907
H              1.8346076878887179              2.0053048612035504              1.0546767938291288
H              -0.1293392374604537              -0.22241485062819533              -1.6731874732260668
H              0.1336111189585066              0.18709214013925496              -2.228240815503893
H              5.174474354069356              2.389176992408938              1.355773794896401
H              4.957333667557142              2.2873571319196966              0.7151698380601259
H              4.371222004705476              4.444643644762582              3.049513407488031
H              4.046221823318412              3.7490769164675166              3.214517109429222
H              2.9449904781407263              1.6367880202335585              3.336153021460497
H              3.4882232640812827              1.9635728806377837              3.0034607452629403
H              3.1574414110148137              4.236143849082525              0.13017776627234331
H              2.7314193786219536              4.354408328986335              0.7604419270439553
H              2.27540797607569              1.8273903589466227              0.5759112822533673
H              1.7135727273852641              2.2149545944793934              1.0502714549438548
H              -0.05013748515039962              -0.24962550889281943              -1.570945549705031
H              -0.04558673705248783              0.29423881018387005              -1.9612929541796416
H              5.2047505391542765              2.3232635648576414              1.0348957081977086
H              4.840855233905751              2.1701671137168272              0.4613373809271659
H              4.052543446269146              4.586329308106476              3.1192492770196236
H              4.260864766523646              3.887601176975176              2.9467422545569937
H              3.07388806347434              1.6928131957774561              3.52957302900607
H              3.4031515138108137              2.0670293295576716              3.040314005439762
H              2.861504087995539              4.3921579835664915              0.139642039438449
H              2.893642427705663              4.584499479448301              0.8296377329334286
H              2.260499679211346              1.7795184946357394              0.5431101424719259
H              1.583560038125083              2.037784736889737              0.658680218154821
H              -0.3156398095295014              -0.4080858181322475              -1.965984617417372
H              -0.11708029663093117              0.27459952387024483              -2.2633347254203624
H              5.2269715683319395              2.274959090435588              1.4085527126722015
H              4.6853350464096755              2.255706188200085              0.9139641825367566
H              3.908308310097384              4.9026862945918905              3.0334688966948016
H              4.037896488489403              4.125410090386979              3.0817764475628766
H              3.113012389459611              1.5494347492156075              3.0609110838020435
H              3.5094210949954476              2.2226190438638733              3.1747615518488894
H              3.0527862558096284              4.306905438915217              0.28080600862035393
H              2.6606489407392795              4.937128734831042              0.39464125303098335
H              2.3508608825826403              1.982337733682254              0.2283762632176849
H              2.006432469313339              1.5812158463921158              0.7398494434695173
H              0.15481076108922964              -0.3820467141651143              -2.311269227008139
H              0.07641915433760715              0.32830408027649827              -2.4080024627549075
H              5.2886926521795035              2.5480501699936795              1.1636149934433544
H              4.573845710826989              2.3182963358642685              1.0598925717776622
H              4.080561036565301              4.895024138709235              3.0012587232686676
H              3.986152991177641              4.257967960387155              2.717248267676849
H              3.168626312528443              1.3848858484176476              3.380241999123684
H              3.2437860509552863              1.9973393664434769              2.8525290005741324
H              3.171439038967156              4.208941400870096              0.4386609146093031
H              2.6241290016067826              4.690489258263069              0.4820579688497809
