72

H              0.772742078881037              0.9035039418407683              -0.493735732023581
H              1.5091976445138937              1.116833559058531              -0.2873982721396635
H              -1.5630915384040798              -1.4603066638328912              -2.323433493970085
H              -1.7862806733522472              -1.624444904527381              -1.691806302872612
H              3.827720161265012              1.4219676296777422              0.8064938970522861
H              4.0118281330517735              1.7535255503798697              1.4050203475354865
H              4.219543601295495              4.209757177686056              2.658598528889404
H              3.6510484034452104              3.968009100207615              3.0545143725999657
H              1.2403020996618481              2.1724428450905777              2.82583529479622
H              1.5667067512133916              2.130251375601418              2.1186109723191713
H              2.0962943089960864              4.063396885224825              0.2593984231320357
H              1.6920192362039161              3.865117142450175              0.8594300549209867
H              0.8865825242578695              0.9447609056128702              -0.25144877171019275
H              1.4594070395221317              1.273532790100319              -0.46335639716235527
H              -1.4173254621132283              -1.5584339295374003              -2.3675313872115624
H              -1.5292931283880171              -1.4462457758255345              -1.6789922999397264
H              3.9194092639905858              1.3222881301532359              0.9363414473653998
H              4.318681656570315              1.91216960477288              0.8032909732757277
H              4.164553345651001              4.5244886033343095              2.4351721617749282
H              3.825358004424825              4.046099738126488              2.91164196246127
H              1.2966268466057378              2.303909476999907              2.7693222261103685
H              1.9134210343368978              1.8924732925959016              2.5226661068279546
H              2.2886791936498625              3.8918896174787085              0.12206474354118577
H              1.7652627228027773              4.052309204033672              0.6099473624039969
H              0.867455995910138              0.6955064777292755              -0.5191195794781384
H              1.4010969359060708              1.224957776286264              -0.41771569100587225
H              -1.4653829894684474              -1.5809434338502388              -2.5018922696223176
H              -1.690725189286649              -1.60571232654838              -1.8042127262714551
H              3.8014658092743776              1.3181234778716011              0.6086401099690247
H              4.160562836108572              1.8725282834475945              0.9084681293984864
H              3.9267040238146627              4.404178795587542              2.5686741395615154
H              3.628701565572828              4.02409910149913              3.0762131095268126
H              1.310992597690325              2.3885897066031085              2.610833631107648
H              1.793593595507904              1.9617178013346535              2.886499124379369
H              2.4983948642630516              3.9114585673441904              0.12447568315969951
H              1.7894752213536425              4.026356644966163              0.4350018554786194
H              0.8881889294607123              0.5654213440560804              -0.611262024907987
H              1.3220623144568975              0.9095679885381509              -0.0760042478147892
H              -1.4685219252008501              -1.7320715793517802              -2.5554302992421998
H              -1.4209590035480708              -1.9188708509146677              -1.8594026456514754
H              3.8358590967630444              1.2491085795486567              0.9785065244038543
H              4.390815969478034              1.8135670097955405              1.127767602525615
H              3.9910966068322185              4.454880782658193              2.5462409158527812
H              3.6255679295558667              3.996947658686733              2.970988765943788
H              0.9910293738291278              2.1418186271617548              2.753158906838366
H              1.7973514325239155              2.149366844689698              2.6593039497218722
H              2.3578124433006464              4.147363148534418              0.4426984721547426
H              1.6627003906279685              4.127206981148139              0.7315200038390465
H              0.941729829623749              0.6251833808712307              -0.5965210720405566
H              1.285271159284034              1.004884929284387              0.041205476070187375
H              -1.6241513075755727              -1.3576150696902227              -2.2984499899883755
H              -1.578464251461726              -2.022481323879184              -1.8634905272897067
H              3.5453166392383513              1.2977379913286715              1.0639211447803147
H              3.9156264024629337              1.9161805741175415              0.9582277154063563
H              4.05957553292632              4.525867400464553              2.405495822925309
H              3.890728324326546              4.105952067106233              2.9075964527385887
H              1.4534615843196823              2.2511395611747087              3.113200649330169
H              1.6561596052894048              1.9338147469824971              2.396223554556297
H              2.218381525843591              3.931290523768827              0.66206542465495
H              1.5681542880608144              4.139276223714439              0.8664852220936762
H              1.1330610799082923              1.006441728745145              -0.5961724096238983
H              1.213627726866718              0.6614551468596663              0.03431539070617577
H              -1.7524845485881342              -1.3903466487571507              -2.368073658004362
H              -1.9412654416890816              -1.8925260878533108              -1.6651670673251047
H              3.492471947836771              1.394389517303265              0.8663181863372185
H              4.046350641089598              1.9944979082942784              1.0188742352365585
H              4.075958265971804              4.552131804801462              2.5091667963384037
H              4.009857055402151              3.90686135732935              2.8202476236609244
H              1.5433012321924775              2.082993109815933              2.7565038421719557
H              1.731706033455616              2.139442267320624              2.1019125961256315
H              2.3166907306027977              4.215087491800841              0.7676324639853551
H              1.635681674523844              4.396332904638479              0.9256105581716445
