72

H              2.1021533193906703              1.802742874024734              0.19616500397275347
H              1.8030496066481425              1.4270940880577137              0.7408656086551612
H              -0.8042049005543057              0.05456770733387908              -2.0582724289382095
H              -0.13457002852050223              0.25579210366922045              -2.6488651039001905
H              4.643562562934777              2.001923934842473              0.7330492752664736
H              4.384329724078393              2.72216655906204              0.6507306425175103
H              3.9672201230601285              4.261407044021121              2.6729338851440807
H              3.9092556576021646              4.6063058790316544              3.414675158710452
H              2.9692552634784577              1.2954475445304798              2.889930360812158
H              2.727920301840472              1.9424495324374353              3.136798930927352
H              2.8441095259539177              4.351736161724775              -0.03807207978179066
H              2.3644205141826              4.3789698311038485              0.6207543709985909
H              1.7868239541909534              2.049672579982213              0.37036353772978214
H              2.00358554885899              1.4850368630165007              0.8814764222365622
H              -0.4999150634047308              0.12917502641405043              -1.885159672259657
H              0.04356256732205168              0.23322600394697013              -2.3023117466843757
H              4.723480039739744              2.0919628339941703              0.7235210819205481
H              4.5938409939571185              2.5575466071377204              0.18183118135047507
H              4.332499633302294              4.386504847543299              2.6985163283724525
H              4.056228478296058              4.202497822222401              3.3945610597459854
H              2.9072107084855032              1.1224071798446433              3.2438804923828153
H              2.9142306419256823              1.828678128392938              3.273968500318165
H              2.683445513163198              4.565597966797327              0.07747571500675551
H              2.6194226174358755              4.271052906633037              0.7484262579484188
H              2.0947059844621907              1.7940298484117552              0.46313962358752175
H              1.647782750647159              1.743393796371238              1.0075708547522466
H              -0.7610275432743974              0.039517612875429396              -1.776776330194271
H              -0.0989500038524715              0.1249173084180935              -1.93123345509707
H              4.431897913441973              1.8887200402763238              0.6386620728582919
H              4.628985153407422              2.5680695957139394              0.4271149412941942
H              4.136215104872362              4.096450611694964              2.922788389539748
H              4.025636637251699              4.431346776967006              3.566064149732973
H              2.653062987248329              1.4829175513892041              3.2850963751196405
H              3.1667173209011894              2.0400182710610983              3.3714848326508644
H              2.6591453047480442              4.519365532186159              0.027419847300542078
H              2.6391667786822675              4.092105493656885              0.616795316603818
H              2.041738459559138              2.0714257248500108              0.14994068347394493
H              1.6496148154602188              1.9753420117099159              0.7330511046004727
H              -1.1247233891662347              -0.28624170268398086              -2.130381562147767
H              -0.3645824675180022              0.005763745978214929              -2.229472425760653
H              4.780279397323176              2.021385015164311              1.0931664739730194
H              4.688588956774016              2.3347783313060635              0.4079851205585515
H              3.741488057354252              4.42280692600579              2.769065232174244
H              4.0155919918985              4.488182112221492              3.422767818393616
H              2.4645821347423817              1.3868627163141458              3.3007288056669997
H              2.9925275659264288              1.9589941120478958              3.482221562718997
H              2.9422805220301838              4.38944578116732              0.12564308335757632
H              2.304996178231944              4.246303841777783              0.4919788604215258
H              2.045789672150947              2.137312702545455              0.10436897434654868
H              1.8545731430541899              1.5501626924403469              0.4039819364976238
H              -0.9528243069748098              -0.18689278157760267              -2.110570918103996
H              -0.40448614380903225              0.2177931813926636              -2.4069824151598334
H              4.424046550747238              2.0191395388806352              0.9516809851318242
H              4.244515182553943              2.444733657901458              0.373477410125867
H              3.7482185795076597              4.725321803138795              2.6124660587657553
H              3.953744588700171              4.382307583496587              3.260024392553729
H              2.37671827605943              1.6544029139436418              3.470749591453839
H              3.1547597554146756              1.4388082191930147              3.5294689339779075
H              2.621677355469723              4.505117988440281              0.13480219529317278
H              2.2553244622703152              4.217570509412051              0.7074984879820644
H              2.038071350707441              1.9899404653041037              0.17291654213038984
H              1.567954080696209              1.638882144251494              0.6517260111854378
H              -0.875025184070987              -0.06460484986863542              -2.0251304792542255
H              -0.34947720321486075              0.14563110177468266              -2.5293090224336394
H              4.607812511203306              1.9891777850273278              0.8548634431200401
H              4.349371890657434              2.60266083340399              0.5227269739147923
H              3.8142146730650044              4.716217415029629              2.5336268997022566
H              4.161395166430273              4.531766200855388              3.163674265630344
H              2.593065447316489              1.365753417822676              3.256253778738253
H              3.1941870487049737              1.6484790582748003              3.266998223373461
H              2.7047891933548063              4.639649266819522              0.1296865300229556
H              2.3169051075878464              4.7611239657480295              0.7542753716859676
