72

H              2.4099251086845075              1.5033470394013957              0.7270031916178108
H              1.7168015756716701              1.755522835151742              0.5740538823386636
H              0.8852006323826546              -0.8274076818331794              -2.1692273192859237
H              0.8283656609110674              -0.128010833410781              -2.0910146426368894
H              5.39337763135935              2.641861053609305              1.459495024050579
H              5.001335858442251              2.02737793802638              1.2573184880453203
H              3.9917358648184558              4.857066015677893              3.0850156006713143
H              4.292364843476476              4.354467019722808              2.6913504803014408
H              3.1104873218789995              1.0961437739805358              3.6398973123942553
H              3.307526568759447              1.631457410832576              3.308606801662173
H              3.002661592756637              3.9789178499229654              0.7958363422259671
H              2.8159889994113567              4.461913829242896              0.30748822722227803
H              2.248189406589497              1.3783059970449358              1.0511841449742738
H              1.62665843681475              1.5766457303794261              0.8749778105202494
H              0.7698817912559169              -0.6966406479332911              -1.6439814788472182
H              0.7828068974181959              0.007856580751352635              -2.022943030166377
H              5.4883086710361155              2.629246646068704              1.4327699644783294
H              5.038436239081415              2.1174717832234977              1.2544390823680496
H              4.279470850470473              4.633346555875193              3.228813677372555
H              4.5102686620452515              4.215504072170037              2.656243264799848
H              3.373567899430805              1.3549067816363296              3.6118131176111214
H              3.27171958366269              1.8275093217440646              3.1471183628597372
H              3.0902826774962904              3.854369120619098              0.466371685134494
H              2.825646553564869              4.5406158320935              0.6960261357569129
H              2.01498334288319              1.3835460821048056              1.1009489603540528
H              1.9049514667928562              2.1473366556817743              0.8481191401803403
H              0.425004855776982              -0.7401213414023952              -1.5410355910276334
H              0.4879347120655268              -0.0831925197119308              -1.8579459887569645
H              5.116922376937589              2.618397316068529              1.070567166116691
H              5.126689774169544              1.9140337731291872              1.0475066645395437
H              3.9348439465881055              4.482825370084706              3.2395003428902296
H              4.556600704600183              4.250909009951685              2.7905821206415387
H              3.5465785601011715              1.3047744872811877              3.5187769086990497
H              3.025622466662292              1.7461502511490639              3.3226687216339585
H              3.1467126342860534              3.883424421859512              0.5551209360193377
H              2.8506400528898785              4.564320293523744              0.5287315898467206
H              2.2037843473866525              1.2030233133479784              0.9502586219764011
H              1.7557251264533966              1.8643300702285182              0.915707273244038
H              0.5535375920170412              -0.7156510483760637              -1.6543217349309558
H              0.28619567602586976              -0.186815025017187              -1.8740231273440497
H              5.121197804924943              2.3731792692190625              1.461854588049248
H              5.112019125706458              1.7300160294606972              1.292199166412647
H              3.8999014749710135              4.723656806002165              3.3961068319730994
H              4.28286316117517              4.326878408254747              2.835542731213388
H              3.13075236034566              1.2005284126806357              3.3001971823596676
H              3.0774571931686787              1.8683005913968502              3.416174415257233
H              2.9987323507845858              4.162495191324127              0.7114073755057814
H              2.7664082926547877              4.559627279232996              0.15952662516151325
H              2.445746724203964              1.5335603362418204              0.9190967521678141
H              1.6984834565691056              1.7232685021858098              0.9644425453928095
H              0.8622089660603467              -0.6552606547794665              -1.8396028518791852
H              0.16734336488530158              -0.1865802230127262              -1.8359886668961358
H              5.412592149188629              2.443669878442346              1.0643845483559085
H              5.22208002675085              1.8862214333467813              1.5413773568624174
H              3.8354343925388075              4.81120421446767              3.0692028392547916
H              4.457221178830299              4.720365117647559              2.6406381301516357
H              3.504920901553966              1.5998777319528472              2.9671516585780515
H              2.9267058713941236              1.9513968551986123              3.358335769410915
H              2.9010133148735293              4.228093813684833              0.6772693649953196
H              2.8603393623880686              4.838273826786685              0.2694737846670262
H              2.267143734548407              1.6511257087522917              0.8275767554618063
H              1.6576198483705062              1.5108068841329596              0.46542664847320375
H              0.6270256615251673              -0.7036854509896384              -2.167916066546121
H              0.44126743416598446              -0.0041669750818062205              -1.9720910155035187
H              5.431065969420234              2.520430176420299              1.2030655812590314
H              5.023570808103708              1.9361803242868352              1.0346536615185793
H              3.719095955051727              5.0967341604074825              3.0220164497047093
H              4.179799237840728              4.530987906912833              2.813836624440286
H              3.4025208041221062              1.2914852807656518              3.0437040527898636
H              3.299001510620137              1.8721714873596564              3.4289654773033114
H              2.8075556984268135              4.006997419072514              0.5209450215193911
H              2.7554852036912267              4.697736777084726              0.3877340645910256
