72

H              1.5003751463947153              1.5976871918613111              0.20055158805801213
H              1.4073254661803731              1.1866204975390526              0.7704550982679111
H              -1.5559591826967132              0.0019419524535722046              -2.092874090001871
H              -0.7705472350808948              -0.004635293100941638              -2.019121405352173
H              4.416096216788345              1.6467149257232305              0.4704154547059473
H              4.367904135004847              2.4531475525645443              0.3889327040020777
H              3.4526598083177626              3.990370252927845              2.63269989653964
H              4.019853702050486              4.555576687027426              2.8766691524192707
H              2.1393915189631483              1.784153599774229              2.7367284428940417
H              2.549299162273124              1.5879834233568677              3.2822093915447876
H              2.3055529370881795              3.9828430804986312              0.3364696072837254
H              1.9890107965898998              4.469888889866014              0.9254951623040331
H              1.4599145990814524              1.912762752529102              0.3330157613238102
H              1.1629557909412302              1.195955371947625              0.47743399320685126
H              -1.3911422264118405              -0.18310537251234332              -2.3690001276357164
H              -0.6924902701232795              -0.065316205044531              -2.206948036321521
H              4.096621923976192              1.8995038384582628              0.8768934326167217
H              4.589081027980907              2.2343043977000696              0.46928807121232124
H              3.3456164454955597              4.11887055703416              2.7839926077040764
H              3.9619193732209776              4.544345189906534              3.0158272283463283
H              2.1784125038232083              1.9271392782234067              2.5486782237047323
H              2.5796758573214715              1.6133109903159233              3.0337596613735545
H              2.4250671924008445              4.263263366832577              0.18427742822221138
H              2.0587447365771974              4.356539926527113              0.816396722061362
H              1.6875699533762385              1.5548256169454102              0.11853288264741721
H              1.2270577292868492              1.3130599778626946              0.57080610958902
H              -1.0251468560247785              -0.2493186449382013              -2.2821068649339207
H              -0.42848934187327137              -0.03023712606036036              -2.346379928771782
H              4.313658415599205              1.796021574330088              0.8651015806949746
H              4.470302644767374              2.5494708138786795              0.7462026958524347
H              3.5401342918773118              4.093153281241945              2.7936647140731825
H              3.8141559063598462              4.802607540733921              2.878886578223501
H              2.0397364207117783              1.878387424115034              2.560019443500369
H              2.588300927309665              1.8292180311492987              3.0925323397519264
H              2.482996758973786              3.9794056719858313              0.2360496296431022
H              2.144410254376282              3.9746556344596238              0.8575139925172924
H              1.4192709653725473              1.931812891087588              0.15581161517941564
H              1.3585422455932843              1.2573451045814232              0.4019817394289248
H              -1.2515732290312531              -0.20617810875797657              -2.3913585721273294
H              -0.46257183349812003              -0.2534508260566248              -2.347138387272466
H              4.785763564336085              1.774087706811459              0.6038484699509874
H              4.7077909301761425              2.5502350565195324              0.3676363534701872
H              3.5539375583019934              4.300809165519166              2.8558290731019436
H              4.076445312652413              4.774408559012728              2.6587044441073826
H              2.519418079898603              1.615544517978404              2.6313153841522285
H              2.317277462555843              2.1647894605113263              3.0562982865009087
H              2.609389606399043              4.0448561237695895              0.5212232867018453
H              1.9243048580998692              4.285207496510967              0.6736104528452044
H              1.6036721861664933              1.8530885707738936              0.19520936911832784
H              1.4449487139738089              1.1910608845955433              0.24695875190664404
H              -1.3223609866471575              -0.12827989616965343              -2.21694748761986
H              -0.6163891199358147              -0.40035067100438676              -2.2705477972532
H              4.100281174529866              1.8188880456233656              0.453419638518251
H              4.574237410350874              2.372340107737671              0.7164909125466324
H              3.6115893012205147              3.9245742273551105              3.0584740525139975
H              4.0043685804048845              4.540711613450741              2.9074369024906574
H              2.151785902213184              1.6171191038590997              2.6043543267725218
H              2.4419164221423184              2.1126965868645877              3.22068737230356
H              2.269395201637135              4.30983107617343              0.41894718493042266
H              1.8638913214019628              3.8249197231157854              0.7988808996087686
H              1.4170897905647122              1.5915174468133704              0.11962785191148287
H              1.6039331352792114              1.2274477599074018              0.7824362024210197
H              -1.3293082733222337              -0.1627636947287261              -1.894760375583658
H              -0.6361668600769161              -0.2771163876948126              -2.227914061856151
H              4.456943759102165              1.7060145999073535              0.7240558890598413
H              4.582433810957952              2.4046639756948105              0.7227036598025608
H              3.8162910355237494              4.000292835616196              2.460501455349387
H              4.115701168849737              4.443795670844837              2.9863388556897696
H              2.013222979957504              1.317997976411901              3.0551940713275925
H              2.4466880145607415              1.8009482360875426              3.132997757686674
H              2.175516855134948              4.209414677639005              0.4661439024942585
H              1.9917827331995768              4.316472846697757              1.1513440179791083
