72

H              2.2995945599117786              1.7104589308054619              0.7206400739369017
H              1.6174465695624558              1.666817552759951              0.798597133807144
H              0.1672823244949502              -0.13941355377089212              -1.9263078583670383
H              0.4359216260498582              0.33858403146170085              -2.346926839962212
H              5.342827703445285              2.2678213594039356              1.0649957742304432
H              5.03068803807847              2.6631679396305312              0.5755782646286941
H              4.507896564388187              4.690272342719505              2.9350910889525257
H              4.002122302063127              4.1676030792868985              2.928710730719178
H              3.497130814721816              1.4450693371548298              3.23419926560678
H              3.3132829510422455              2.096833055172068              3.0216840804597522
H              2.946452015467668              4.414886387879912              0.296012107402225
H              2.712169352650011              4.603067657470971              0.9641352193712011
H              2.3265090427137256              1.6368615207256083              0.5878720860665155
H              1.950153655192792              1.9652959790920992              1.0971602539578498
H              -0.030922984462389665              -0.2678611864949009              -1.7358911359719587
H              0.3888312726198781              0.20594412638768989              -2.242418451892408
H              5.249183320434457              2.283721536382819              1.2116324154126825
H              4.79457724551032              2.592034107946771              0.6690238826745111
H              4.451537683590824              4.308682392479011              2.995288406795175
H              3.937378056723089              3.9053707404266746              3.2584015230432635
H              3.378997046832072              1.6078046400075248              3.2214815975029123
H              3.265785127478154              2.301316265074148              2.975131343458895
H              3.2536702338753964              4.233493077600165              0.12496742641169278
H              2.7067201116001254              4.391252487912444              0.6466814753862722
H              2.3391639322715414              1.6070763761013727              0.740399121177438
H              1.8216139091248107              2.0018522162489734              1.0609068126949082
H              -0.10346144529293723              -0.2504007282705778              -1.6392889347304553
H              0.1678933120418105              0.20421269771508085              -2.2436846172806506
H              5.184795619801997              2.4029198177904796              1.3931686843497344
H              4.959837609344786              2.27997452020545              0.7397072683861329
H              4.396383875086355              4.452232756695569              3.0515000439542113
H              4.042770588689997              3.7480001280218382              3.196898314206409
H              2.9480304845833114              1.6047919892664082              3.344217013897549
H              3.4885981319056554              1.9897442181909024              2.9872428309699552
H              3.1806600372258003              4.242115220068689              0.1367784009973703
H              2.7503266463559752              4.365939276166876              0.7727553414810919
H              2.2733648356609764              1.823334174925063              0.5772697205536896
H              1.7130552384763376              2.195606345679844              1.0631008323067768
H              -0.05528151892675153              -0.256266304801774              -1.5860801655714865
H              -0.043554033859741555              0.28732705730544233              -1.946292291701947
H              5.2326823317893              2.3349370026329184              1.0151964752692384
H              4.852473761159277              2.1688156030187495              0.47476824253112065
H              4.034108989284091              4.604032947846943              3.1105443759760756
H              4.273207751575961              3.897535074531465              2.955557305464203
H              3.047588357262767              1.7401311676318003              3.5149474433195524
H              3.431726528096672              2.0747212505969386              3.007570190064427
H              2.8836314187052383              4.385088560602137              0.12630943509778123
H              2.902838360018087              4.577607058563623              0.8373253089618052
H              2.2590704949082654              1.7720000463231962              0.5569719728739614
H              1.603568529604016              2.0474357728389836              0.6284869211875147
H              -0.32502160304356115              -0.43782619025109804              -1.9781328956644548
H              -0.12041299280702389              0.2657584368094885              -2.272395682047665
H              5.240513227707246              2.279212778937827              1.4294074421452487
H              4.701464074874232              2.2437113642430697              0.8883342815390877
H              3.8939236801170125              4.908019491119277              3.0334305801343913
H              4.044572017527074              4.126660129437232              3.089158461941845
H              3.1100560747114603              1.5601896228813306              3.0736211454750912
H              3.493798732918393              2.205692996048839              3.1693318016618184
H              3.0573586653505997              4.299872885470792              0.2874317889804027
H              2.6448887688836784              4.947021333759662              0.39138995754892225
H              2.3645552014555373              1.960272313577958              0.22927941074664673
H              2.0151386290314326              1.5670839092851478              0.7616319711316123
H              0.1733178948797217              -0.39601825419344117              -2.2865394589505263
H              0.07278300489820233              0.332507229752139              -2.419406507209102
H              5.2775835720605455              2.526483823662883              1.1728075253421526
H              4.592647581920861              2.3299355231924483              1.081528099625139
H              4.098877122812296              4.885380754070329              3.022555540353913
H              3.9797853267793495              4.255495515795592              2.689350123533927
H              3.1732654191253693              1.3741899219065243              3.3978327782318223
H              3.226981060939839              2.006381235049438              2.840815944832836
H              3.1537327380895555              4.210447814655589              0.45446073856232644
H              2.6164190196897974              4.697592109867547              0.47475664367121584
