72

H              1.2595854534233122              0.8520103855484212              -0.16334311265842466
H              0.6340973562580366              1.223266386915891              0.0710459114609318
H              -0.9153315046859022              -2.2796861113656              -1.9081057951907434
H              -1.37646475421342              -2.736393468535946              -2.3883346472225884
H              3.9845434439160896              1.472394282211457              1.536392053444389
H              4.312027900710474              1.6303898570802369              0.9206941315012432
H              4.262486039093593              3.5534913733709              3.4454914154598186
H              4.267110977863988              3.803221142862447              2.7801833468834567
H              1.6539236462109261              2.441926429974202              2.614416558940001
H              0.9064217193668881              2.386848908646219              2.4581278848015358
H              3.095958658736336              3.6696350587340087              0.33355812410931157
H              2.361776463531766              3.568993545895939              0.15727982005714314
H              1.147678104507066              0.7016962737000638              0.051438218022655045
H              0.6958230746558224              1.2484844735210485              -0.3433640260580565
H              -0.7599051549160751              -2.683356559742958              -1.915886586992764
H              -1.4511199550799174              -2.646085423178357              -2.347477915147871
H              4.186088486177169              1.5075714407369583              1.7461801160767525
H              4.563149163389865              1.7635652480157515              1.1197040961749092
H              4.1440094394896665              3.5776892199721346              3.4279729646843733
H              4.282969079689922              3.6747865969246436              2.754280232815152
H              1.6799909767116004              2.1654618618529384              2.3397576717696382
H              0.9292120757361662              2.3585691296555154              2.1807075054457776
H              3.1991487918712678              3.684936068142121              0.06302453020163135
H              2.7330923337800597              3.5395201645821306              0.5950472264159354
H              0.7367486149073793              0.9418496938270086              -0.5458198744282772
H              1.078092777330142              1.1108641256548644              0.0642771308894062
H              -0.7784678514297527              -2.605093745078903              -2.059219582843494
H              -1.381453329052828              -2.8571992118340392              -2.3397448489264607
H              3.752127374007308              1.4672606762661342              1.554633866436506
H              4.371897433417213              1.345561682036318              1.1873211105210413
H              4.013615243807731              3.3327903914239707              3.4402050601679
H              4.024496746763333              3.754564947194024              2.851199988471225
H              1.46250362646403              2.068108597262263              2.466687569543007
H              0.9373075050695502              2.377993066179563              2.0403778808638457
H              2.9443641077689615              3.4369051626284217              -0.020248423574559908
H              2.585501920119221              3.5103419430604674              0.6162396139589125
H              0.8026296265738496              0.6060295447760733              -0.16693776745655667
H              1.441187518116337              0.9289794440728156              -0.004884679550690577
H              -0.9727700950296931              -2.6843063565763865              -1.9512297991376237
H              -1.5165914542061163              -3.0593786793330877              -2.339728774130335
H              3.6977302038877915              1.449836899110611              1.5557437437640529
H              4.347675863000847              1.2419693125482882              1.4103698327524423
H              3.9437048655261955              3.8249032974381016              3.2873718263310794
H              4.388398052463812              3.652296519655844              2.7832424953869643
H              1.2302544666479853              2.0576439508587536              2.0031853251310157
H              1.210511132468591              2.2304626269809935              2.6706572737750243
H              2.9304203143305196              3.4562253433427994              0.2597698776387961
H              2.2605061351949507              3.75318943593699              0.4674363914756038
H              0.892113628626001              0.5722444900666278              -0.4972711276065269
H              0.9533090145385179              1.0056077020081868              0.18194578585838198
H              -1.3780425816751898              -2.685647897511592              -2.1798191055612723
H              -1.7534701743461842              -3.166848653301495              -2.4986494854583507
H              3.979225776121534              1.2230651239908434              1.5546896552813634
H              4.603300932386311              1.4681924951968377              1.3984370654008345
H              3.745475235863485              3.756413944816493              3.450656715703872
H              4.101006091405793              3.9903722355592013              2.872289981920471
H              1.2815422447892406              1.9397854183592955              2.336860731105708
H              0.9719295502683891              2.4897556668668845              2.6260563927693177
H              2.7221662434236866              3.7706653999707145              -0.065891651532314
H              2.1974774525447383              3.4824002006813473              0.3419788517000701
H              1.289124534574425              0.6126667003138622              -0.3837244913863422
H              0.8634020658449856              0.9515419916366891              0.08322371756408307
H              -1.1367616437266788              -2.540015426230952              -2.4103383529880307
H              -1.5649057261967652              -3.0073449207859326              -2.3920103433245528
H              4.090962438249353              1.4737129294201319              1.5467549243094536
H              4.620133121974771              1.3910542994737531              0.9812647655094442
H              3.856955512206841              3.644319578357949              3.3685086622198113
H              4.06488972713262              4.056106628196418              2.7789582362039233
H              1.7808333676305634              2.3346865106659025              2.2081775494170928
H              1.1568174131551878              2.6204996725551366              2.3801256009514593
H              2.7090288669362788              4.179173134994521              0.15888630845829113
H              2.292031421934961              3.568437966866839              0.32652576218842083
