72

H              2.38567614311651              1.7646228924848857              1.2299744990901502
H              1.7829134875705746              1.4037083570379307              0.9302175874672235
H              0.09851499998737773              -1.0654751482166585              -2.0521597582072078
H              -0.5620038537696413              -1.0953533708379495              -1.9383518433667446
H              4.62237942531486              2.021056395775176              0.949458775813976
H              5.008975963519525              2.5938500663506567              1.261721765568247
H              3.9177997352661134              4.740043323808001              2.4312429346727575
H              4.124210736187641              4.7435509733879195              3.168639021963644
H              2.590091229194936              2.3731345899319543              3.638311845697968
H              3.158333943726008              1.7415642936121634              3.597608280157314
H              2.6054375872411675              4.421590403349122              0.25835591914050116
H              2.95748604855819              3.7618411463642225              0.35120262623211623
H              2.2305504735053057              1.569846144139062              1.1905457988127988
H              1.6201110750835903              1.9607268255575736              1.063460125418108
H              0.3784895369110432              -1.0950628556768531              -1.9751653550824377
H              -0.3360623330356854              -0.831800630758141              -1.7091201741098934
H              4.717947015109087              1.9781917684431922              0.9014158481097998
H              5.100407594853511              2.3471104959589533              1.42228172618887
H              3.8368741614081796              4.787393169669668              2.714544748393695
H              4.427212962156174              4.75508304466794              3.070030441885783
H              2.657956558541675              2.244746152663094              3.325020538572954
H              3.2351534311317804              1.6581167035313469              3.37668792837449
H              2.9775924993609193              4.5678196193307485              0.5215703223932436
H              2.7528427255276307              3.880509467181801              0.35732334437268537
H              2.0967105289320735              1.7223482169219617              1.1663320189862274
H              1.7022175591070647              2.327733974578975              0.9071668392882472
H              0.3100489506786131              -1.1849195461421693              -1.6195147980535818
H              -0.4520555489425245              -1.1891578521814605              -1.5955378351003056
H              4.84017944686164              1.9197081266570568              0.9672021622534114
H              4.901666267026175              2.6212620588316162              1.1910826337540183
H              4.082416239981663              4.639120602491447              2.586439486719198
H              4.409841116063986              4.748689854325521              3.2884897166351594
H              2.6363736232978883              2.5544525493138153              3.6576739360016077
H              2.97309168189775              1.8961978344038346              3.4738208306414657
H              3.1783732178423985              4.579432478884266              0.16883584548727548
H              2.9375482386864356              3.994647918721116              0.5423813439379989
H              2.239382406113986              1.629277445946186              1.1291149982726114
H              1.7505417880333298              1.8897269707897955              0.6496015718358902
H              -0.05462328427817404              -1.2200443663706908              -1.8697944026621134
H              -0.8039316701319479              -1.3763096405610855              -1.822026404541983
H              4.9978419000165815              1.9671396075922394              1.1394000889510838
H              4.999889841047922              2.753507749297              1.5448983276805222
H              4.264408822238853              5.013186024146348              2.4219897606170053
H              4.139646638554596              4.714599241189357              3.1212877236903482
H              2.3403264248780236              2.4667014332566657              3.8692184349057164
H              2.7682345475673293              1.8009861927650894              3.7265331528121117
H              2.8247543879121824              4.231623830327624              0.12654384312395922
H              3.1785244408777626              3.8515409820305933              0.5984430276002255
H              2.34128825032308              1.2605428866442845              1.2295477123153087
H              1.9754620005608765              1.7024100563168183              0.7478454414667524
H              0.07121267260244363              -1.1398833677150524              -2.027259308007343
H              -0.6707310988262167              -1.5001010239700194              -1.8244782408177194
H              4.983227130829453              2.1767333006111143              0.9642891885189815
H              5.164736464940871              2.9048781865872813              1.1805442421457324
H              4.207387112831644              4.835650074433188              2.4304520512912346
H              4.120465313130131              4.786953185050192              3.151548715270933
H              2.1368445091061163              2.2583912731651363              3.838909854859638
H              2.8166672605178595              2.380422622156328              3.573847502583542
H              2.761547744154363              4.345850717386697              0.29809631961066363
H              2.7733505569562196              3.678593863577843              0.5808476637004019
H              2.2797837353444814              1.581484079894255              0.8475021794849557
H              1.6511168900240207              1.5478582534442602              1.2553374817763558
H              0.06703408786967076              -1.1068741803794278              -1.8712998618594756
H              -0.6984148574272935              -1.2433338038372816              -1.9295208958320973
H              4.7209441708682975              2.2705081401068976              0.8219031617848402
H              5.280428874560748              2.669505144660455              1.0777558883346752
H              3.8437104118212435              4.779743985334288              2.4695892011568703
H              4.237433775947442              4.795613505752193              3.135516238375813
H              2.262083050249308              2.2855437784966557              3.7186447956851563
H              3.0320970621454184              2.4060851582187484              3.696763253297577
H              2.5037528479343316              4.321863820659893              0.41947395048215674
H              2.871980927658885              3.6408692046744586              0.516153721317816
