72

H              1.5971928326020077              1.7310621343996926              0.14060543028929348
H              1.27098357480185              1.3470312076907165              0.7282639532861158
H              -1.5833949176304263              -0.12119890823337458              -2.2131629555907595
H              -0.8186433183751444              -0.14460881868725328              -2.098847857906968
H              4.452865404781708              1.630751536384078              0.7758309434123385
H              4.6162934897138745              2.376447239743532              0.5062490914523639
H              3.341997499488926              4.0161437497704355              2.832169918033847
H              3.919292013584263              4.569104930833411              2.946494868124873
H              2.2177295057213895              1.7093307680226644              2.7909722488741266
H              2.4641734846975245              1.7235895253519546              3.4358261904693244
H              2.5238665521166945              4.053506238944379              0.2879393698766793
H              1.945789484440078              4.21800485439908              0.8628463800226248
H              1.3794483045186365              2.094905988755027              0.2924073195016666
H              1.406686644135645              1.3427276376709614              0.204298383014949
H              -1.3227463035102376              -0.28978179569240203              -2.322345843685111
H              -0.684818309596927              0.0646144812485868              -2.288599094756735
H              4.214435810838923              1.9491613764331555              0.9604214653177483
H              4.362953613010366              2.252024141822963              0.32623846687350155
H              3.3906815154023566              4.393739818974412              2.483794210752037
H              3.9268886833008048              4.491200598089007              2.9724575942642826
H              2.0700428447415753              1.6047147359763108              2.9208558105139675
H              2.681727300935804              1.6382262205527718              3.3100511941860082
H              2.4503874876019403              4.242779517113651              0.2999439957791147
H              1.9984871266548032              4.343660212935249              0.8972217949889237
H              1.711366364888691              1.5309743123158464              0.13209164224476394
H              1.1475269265258525              1.3158415576270461              0.6020840305718648
H              -1.1870278865545252              -0.11293863454801427              -2.271621077777603
H              -0.5177827866651763              -0.035773439299703336              -2.4070307713345125
H              4.242091044637819              1.8533684881868924              0.7766595324720558
H              4.274395954999933              2.613829119064215              0.8429831972612832
H              3.4746296753995085              4.248344254299653              2.7508394178931486
H              3.9207300860860035              4.845999605893412              2.776919432523768
H              2.1753234246681985              1.9014452284175336              2.6800822785204974
H              2.829880639489685              1.6899429469145093              2.9776157871234123
H              2.537070432674407              4.171891741229943              0.33227117491577857
H              2.1390277296549867              4.325782172688045              0.8984805269925984
H              1.4653402421016397              1.837559582736814              0.1252163069429669
H              1.460503559971405              1.2506920123680625              0.5160773924183503
H              -1.1287705383064925              -0.15858479009507678              -2.316582846332151
H              -0.4266534880870783              -0.1250391894243304              -2.6021972624231737
H              4.817092590585293              1.849844668939951              0.617638075903116
H              4.680827301058506              2.639678865141282              0.5385631004235378
H              3.5782857154147614              4.186720787429955              2.7851455951600186
H              3.9906048530617686              4.757800879005321              2.836209520672609
H              2.459895501583116              1.505520654700558              2.5274956007679004
H              2.3379593939661163              2.1964831983452644              2.856996060666981
H              2.660175715316438              4.105823038669585              0.3087453335929146
H              2.045290536500752              4.234477061427047              0.7676437952048702
H              1.6360816764101327              1.7532002367186748              0.40330793695128864
H              1.6621508614706852              1.0482155129483055              0.4242405712485747
H              -1.0472872008963985              0.06656615909727506              -2.0668716465222468
H              -0.3200886465020627              -0.18768076698501077              -2.2763555258478907
H              4.213453352518923              1.7991797921542967              0.41702992427205354
H              4.618062135253069              2.4606187718552404              0.4729049961550427
H              3.952999540058988              3.9081022389302658              2.8075749732265574
H              4.010055459002602              4.504289836682058              3.207839278586937
H              2.3838379077950957              1.4983258498441014              2.636652644485715
H              2.5444909822221984              2.03469235249363              3.232323944141436
H              2.2926175930447914              4.244184416192165              0.26726010131436945
H              2.051368944237864              3.9544636271365436              0.9106193917796833
H              1.5145909746853563              1.6490497496959473              0.2404386735278387
H              1.5446369028268736              1.3887423939930623              0.9804634490756586
H              -1.2468537304775464              -0.09363221958124128              -1.861865782327444
H              -0.460942628844849              -0.21504779423528986              -1.8920347838200218
H              4.499613290260296              1.6891580732190825              0.5047013679169536
H              4.674229359269403              2.367901150608067              0.5181268687558761
H              3.7994862593170775              3.9302393588634357              2.685237289553248
H              4.1788982855120365              4.427310551182898              3.063887598436437
H              2.109707383782162              1.4111413326835494              3.1252913888067333
H              2.639639109541553              1.8237249363129377              3.250596540130851
H              2.3852168872480695              4.334099479242008              0.3431760928586687
H              2.0956651825051633              4.221813541295223              1.014656186377531
