72

H              0.6576245061827904              0.9284476482007824              -0.3479009310542392
H              1.2820225133707626              0.9978365181282193              -0.7383465711604289
H              -1.0103337435739885              -2.4824575369722055              -2.1722354126202776
H              -1.6569954155283209              -2.6742296672970487              -2.2147595436719074
H              3.5048779604130336              1.1415878260489414              1.4590269671283873
H              4.1085723082893075              1.4104693563612283              1.0322797374009491
H              3.6576502140862237              3.861470841990931              3.1427866223537206
H              4.272162064898663              4.047247349813635              2.824550425040142
H              2.0336442066820304              2.3235148189351476              2.5710612421029757
H              1.223836492775953              2.1621861231281643              2.484755038100009
H              2.7685944657322437              3.4979317176088736              0.055933462466950426
H              2.1358584084696948              3.7680485036905726              0.26030167320284814
H              0.7892384304359217              0.8663252688561026              -0.4416097046966906
H              1.5262599394417666              0.8873539886388492              -0.5827613244066927
H              -1.1596353158364143              -2.5903691651566443              -2.2635221445023563
H              -1.902811239403042              -2.9148479126554334              -2.141570865807554
H              3.8833623249466744              0.9940210641240004              1.4950767502618825
H              4.521021603901801              1.3038561872839984              1.2712247180537046
H              3.659206493625043              3.8596890019356267              3.1753792764433837
H              4.40719264584648              4.075577295590726              3.024962626289912
H              1.6422002843246561              1.893510664369295              2.3157374882327995
H              1.1602314495334733              2.5153993040094536              2.4580858334880227
H              2.6366738911745164              4.149749578904354              0.08858308719132521
H              2.1109465212466154              3.8306565691270706              0.5017680980140676
H              1.3887222000759385              0.8527585329457396              -0.8575487061320686
H              1.367332798880056              1.0395922073005621              -0.1663706532159329
H              -1.1841150671863905              -2.308732735855999              -2.1735341695166923
H              -1.746277712713045              -2.7804320595660577              -1.9370498896841104
H              3.9948995837947163              0.7704559684363959              1.3743793135655071
H              4.442438295830945              1.327107813623245              1.1066976681273788
H              3.8874453576755634              3.634588994193295              3.2714539664446205
H              4.263659079811347              4.212091722221435              3.032183663494497
H              1.3663984635792392              2.0844366947570765              2.823448280886657
H              1.1849463660463808              2.522327773686608              2.225965851913413
H              2.3864887814033735              4.247227096953689              0.1942441395665177
H              1.9784171029957005              3.6385359859873856              0.1438127632003246
H              1.7068845769939451              0.7595603661721314              -0.7302155274837979
H              1.5136232033888546              0.9665123720521451              -0.0876534426515255
H              -1.1841912748222438              -2.30421467583481              -1.9466396150197014
H              -1.8739406793272781              -2.462368597808836              -1.9978193525237247
H              3.867661724637784              1.210362052923883              1.3906163361367394
H              4.3880479467056235              1.3596523434924923              0.9463391407157503
H              3.952232829600034              3.8265983402640766              3.1722677146637728
H              4.5782310676300835              4.156276709453728              2.9113970874038295
H              1.6569365721718383              2.0911024698621077              2.76543071118998
H              1.399585897767601              2.3857855838773663              2.196628297005947
H              2.768317367415787              3.931091718972645              0.28145047304925025
H              2.1323671617281708              3.8874358879746076              -0.07354882413747113
H              1.2092261407477403              0.646263270686344              -0.7620541223666705
H              1.4376891695250835              0.8624739340837672              -0.13826058056516377
H              -1.1040828593138978              -2.465041816847221              -2.072052449934578
H              -1.8558789887666975              -2.4351888295829545              -2.173675067499579
H              4.086177576896623              1.0024207268295637              1.3144136007135525
H              4.592018833474165              1.5766048077745263              1.2717580237848483
H              3.7221406884441732              3.494430564727457              3.1918297830236404
H              4.059456463568456              4.191677995653061              3.1156105216542644
H              1.2521417136456854              2.0719640622683184              2.846906994640886
H              1.2065219249297408              2.344800012784997              2.170244599421572
H              2.8270443026755676              3.804563202957576              -0.4094465359593509
H              2.3336366461659748              3.6399542710436315              0.15522664361227786
H              0.985455803251353              0.6009342768281309              -0.5209326139046673
H              1.6630371014600394              0.767612444056419              -0.45750649538251403
H              -0.849178891489315              -2.516032364779761              -2.334104072832771
H              -1.5638029419981063              -2.6604597575337983              -2.2200954538996025
H              3.9332069839762265              1.1769314453216095              1.6090461210551366
H              4.453345278967427              1.2812691079042533              1.1420308169455367
H              3.6506571279034286              3.5724079265146083              2.9691249327048492
H              3.9920740883089847              4.208322549794825              3.002396954050802
H              1.8073739723971396              2.3113818041972585              2.651418668252464
H              1.4753132016279953              2.3807013844547695              2.085152275755683
H              2.7616665396577096              3.5804441650496037              -0.21386072647702353
H              2.2558972723160795              3.712035574461823              0.31232750171618334
