72

H              0.8204332549905282              0.974556307565479              -0.4122623713710242
H              1.5641188774478003              0.7323092938149555              -0.5861439443625134
H              -1.2266645292279568              -1.8569177089842652              -2.3989345747152844
H              -1.4684748941389199              -2.2264979644874465              -1.8912318113472026
H              3.5122219824002827              1.2490929743761723              1.176902047779143
H              4.118921749837025              1.5972677568401543              0.9876865606762271
H              3.926369328676943              4.2275688958946365              2.390778443253289
H              3.921093669549507              4.063107882626935              3.0635295384403904
H              1.497086830878309              2.18888854189415              2.961140708816736
H              1.9809434791363971              2.1167260488426844              2.3842148288060283
H              2.5004469031689225              4.005818823258379              0.30978842862622274
H              1.9050475180992874              4.18165581808104              0.7067520785721685
H              0.8396387451194397              0.6820241567134336              -0.716870959211779
H              1.3740800781242752              1.0473683640443505              -0.28731803648385074
H              -1.4783559067792982              -1.7485297238012771              -2.2709576451807196
H              -1.7149588683791601              -2.352223852238329              -1.7804242561272703
H              3.7698989398655174              1.08386701619649              0.9933624836115231
H              3.980822542858213              1.760190405250957              1.2134804887000832
H              3.7128460787832203              4.087839486072334              2.468800122290933
H              4.140928783185427              4.253361676114934              3.0432724035058243
H              1.4866952088343282              2.1289353703683678              3.052492799232669
H              1.5980551265799963              1.9097649043044183              2.3585296214514417
H              2.53239081777074              4.247649498346708              0.6392207856697689
H              1.873606538121719              4.053506615972585              0.557779336364341
H              0.8411686722398125              0.9153526741889104              -0.3043490396258472
H              1.577419996738064              0.7805242650492332              -0.3373041478343297
H              -1.6094995937147598              -1.8359243846188458              -2.3799401892980674
H              -1.879183453115583              -2.101239472954501              -1.6878556323388303
H              3.5164938440981106              1.1741214783887883              1.142016044539289
H              4.079542512894868              1.5524639042542723              0.9343052476924019
H              3.9086465213268755              4.248637839900609              2.482677744315765
H              4.040991651600536              3.925086078848843              3.0554760154153704
H              1.5828392825138293              1.8924509292954783              2.6904928555982854
H              1.9173078346478376              2.3291983666690053              2.0917737083843413
H              2.412694062713623              4.376368816205547              0.5158115448732372
H              1.7789219462118868              4.221110671086511              0.8114494312019976
H              0.723464355384189              1.2010390420183448              -0.18485360750406526
H              1.4246283500786832              1.1103431935959578              -0.3710840281941293
H              -1.3707917811819903              -1.7363849048123299              -2.0627050777458282
H              -1.8876331883187314              -1.8660954550727562              -1.6066468859028438
H              3.559688538970981              1.0657066263000654              0.9379819745734377
H              3.899388232614258              1.7246606905961404              1.2728950161122996
H              4.039293279889824              4.064256358164191              2.4474449243289538
H              4.000485911830528              3.966450362116589              3.18141658517436
H              1.3191656209610767              2.0696349176904265              2.7718400124342883
H              1.792320735175487              2.098070998992568              2.32447842495052
H              2.378528165377072              4.156633399272291              0.29162482287097147
H              1.7015587781898716              3.9094077068895943              0.5784244661798748
H              0.8831706753554537              0.9634775412170604              -0.5515685965317232
H              1.5069633920161676              0.9539820134059127              -0.26373831181990165
H              -1.3838548260991868              -1.9285407134611108              -2.369032709496987
H              -1.9625635648896131              -1.891950421705639              -1.796696385968234
H              3.989868041175593              1.0861075067626296              1.067266640512611
H              4.373702611035882              1.6946079529435734              1.1259073817627923
H              3.8109229192617566              4.286382053977719              2.394304578433877
H              3.8944362605100715              4.200334289707788              3.1296516020385976
H              1.302479565791929              2.031917072700847              2.7619762934598686
H              1.9775723019241969              2.0877528411549533              2.3977066013244204
H              2.643126786093515              3.9970119624274525              0.1788077657116308
H              1.9008263826340346              4.000391843705797              0.17260596389283206
H              0.8067512677943617              0.7152698859724385              -0.3297814033105639
H              1.2067469363295786              1.1358019266560766              -0.7493061094771848
H              -1.3579541224914606              -2.016989195489816              -2.657346650419034
H              -1.667014077897587              -1.820463005611209              -1.9152221015712851
H              3.751607550685865              0.9853382198602461              0.8572483321501101
H              4.261489462700306              1.6471417200494314              0.8250436367245234
H              3.6427016462564277              4.201812232376132              2.4610147276152405
H              3.575783271944872              4.134001598969771              3.184424215536831
H              1.6191139506320094              2.0384572628102577              3.0601675742093875
H              1.6235443995122176              2.3116106523596978              2.2746318005143307
H              2.402494203751798              3.964971886005827              -0.23022136868221948
H              2.0408092968336358              4.017532429338722              0.4266544890507161
