72

H              2.1741591321711393              1.7989899170918968              0.2600274527718799
H              1.7209583812548475              1.901977899654572              0.8015578930991341
H              -0.5643257427136038              0.1421899281202471              -1.7679083170371876
H              -0.2588665098694383              0.2496233254037713              -2.3690943750086566
H              4.3763475413962665              1.945749600276736              0.9968769755326478
H              4.372256586137819              2.5408318351914696              0.5093360822569867
H              4.248152464065412              4.490831697553049              2.803265698332093
H              3.970546792745572              4.067255558468497              3.346318012901635
H              2.8607470450175376              1.052377757648086              3.3323244512531094
H              3.1453312909612663              1.6794191232436737              3.5683950143538867
H              2.4362922711679262              4.583351844429728              0.02699223306245475
H              2.6143697903658616              4.538586756892559              0.7194087264960223
H              1.945620829692286              2.0877076932020144              0.33601954421419034
H              1.826448731551564              1.7623701951648891              0.954371422073861
H              -0.5060627066769368              -0.0262151644672325              -1.8470602196696329
H              -0.0102226652908696              0.5237827031427638              -2.2113781007174156
H              4.939023778404366              2.2230222100766497              0.7990414636809324
H              4.273247766430208              2.5000325013007507              0.5437362065029814
H              4.1522625180070065              4.673223554681072              2.718104778980489
H              3.9557281987646227              4.16533218282046              3.209676338240549
H              2.960923734089988              1.1927171513712116              3.2887921773799733
H              3.1045041163992977              1.9478855590953135              3.3038815314833387
H              2.9885544273680464              4.334024051893883              -0.012682541333583956
H              2.6699040967067074              4.59181615295206              0.6084429692712455
H              2.166302018092306              2.0680147064912875              0.43129183966925216
H              1.5506297956105073              1.6705132837612757              0.5477780121013388
H              -0.7421809820188249              -0.0415591569983957              -2.307235301404072
H              0.0037715739545021              0.2640673979973467              -2.2155278898865305
H              4.67881324097625              2.2011053194320196              1.0054638775110678
H              4.5789391036988505              2.5094535175685055              0.27954064386194355
H              3.8250273226149876              4.439543556607872              2.7956460081457775
H              4.022816244791517              4.545225951630752              3.5703310434883284
H              2.859722607976559              1.5506038800172965              2.9831953200788384
H              3.315874971615389              1.9959500521905813              3.346157207085428
H              3.0544321531401395              4.543396207392224              -0.08139780128264655
H              2.568140956451324              4.295210629470055              0.48623044502180485
H              2.394632503161454              1.9171697701656976              0.22316480652262938
H              1.8585429205379833              1.615021505295098              0.7448353077889711
H              -0.5069719512427545              -0.3197337161528726              -2.0664571602344286
H              0.011931865985584553              0.0767649024089936              -2.303034721363381
H              4.445967365902641              2.0948910391961117              1.0833670117166285
H              4.531216841304705              2.5814893558184564              0.5577111823193744
H              4.084406024158166              4.43774453582891              2.759041298977324
H              3.9943088889602554              4.4961803979366435              3.5503763776807435
H              2.7785407160000584              1.4382286783248577              3.426734745448282
H              2.912285044028304              2.0746664030843225              3.1345229163855644
H              2.7865507765387205              4.708260947022695              0.10765914184097763
H              2.6469245305249163              4.099093344540986              0.4677374318605264
H              2.170246831321872              1.8298813681503112              0.22676730069593515
H              1.9577276369957113              1.637132486211131              0.9257018482057779
H              -0.7971112061345762              -0.1179011398226822              -1.895975391916119
H              -0.24499917508260685              -0.026816436543113963              -2.4394257741232694
H              4.95570454313455              1.929938073451903              0.8630932307580326
H              4.694044064595098              2.6501576561404425              0.5829793021201228
H              4.159726747427171              4.602698792913775              2.6235160291404034
H              4.103782869008321              4.533500745937485              3.432021373811536
H              2.5658855244385563              1.5163020263719724              3.2794081693506745
H              3.1743331193433875              1.9535626314935544              3.2309936546522753
H              2.881859686517485              4.563418681628529              0.16320217531586304
H              2.280697798902076              4.383946218970044              0.633004703480608
H              2.0698194967945445              2.170239375394354              0.07936638073374104
H              2.132920628768536              1.7952199263508808              0.739681428994446
H              -0.9186981774090648              -0.04124698867697487              -1.923524844024332
H              -0.3980639621629374              0.16210305958133162              -2.4322590577253087
H              4.749801514774019              1.99226648700067              0.6575294126289705
H              4.4938564264420755              2.4831638923211115              0.15479168974914234
H              3.961478294665125              4.555659392975772              2.7232048946682914
H              4.128046953286741              4.232867024512495              3.392376885540336
H              2.469443757980631              1.463063344463567              3.465788560232032
H              3.291940108723434              1.6080682277620515              3.3421496346406556
H              2.6559172932337467              4.476951647075612              0.013405000525155255
H              2.2415663354481556              4.395078818631131              0.6060223108542865
