72

H              1.223469745747977              0.8699714385397728              -0.6296318342082786
H              1.1142879898230582              1.2638320795577365              -0.0037988595439746643
H              -1.423812998938194              -0.7709716921793566              -2.3830502416154506
H              -1.0493488177199728              -1.2389929045589851              -1.9933810929608622
H              3.901518670828228              1.7760516157656834              0.6215217110990943
H              4.00837464287942              2.297259404552393              1.1162562927053172
H              4.418816422416605              4.36252562187044              3.040871982694863
H              3.709918829349476              4.2764704274227565              2.6980280950383206
H              1.4642960440475694              2.518653100362555              2.7457003687353905
H              1.6494204404067878              1.8327888519882891              2.671550756459924
H              1.793877550733817              3.647816375205713              0.2598610845375961
H              1.5903619107974623              3.9521424544181123              0.9678155429218286
H              1.507656060211404              0.9987657693903668              -0.5356396442857755
H              0.9525354115617714              1.2781159153535804              -0.1745549334134183
H              -1.4713138450198537              -0.8834461820443316              -2.231857948681566
H              -1.1552712254868915              -1.358434058199326              -1.8066933861810568
H              4.384032163128605              1.690017412213103              0.8120330134073889
H              4.460983086298876              2.3742087750901564              0.8622919818631394
H              4.3968852359533415              4.475307328280834              2.8512458500514346
H              3.8629051525821922              3.954917950411552              2.7010519068473
H              1.479701789904879              2.44579417540088              2.7907704255186214
H              1.3649359588686603              1.7328563506196586              2.8019272325623006
H              2.166627489876955              3.903142260062087              0.5028607791141211
H              1.5250359079239804              4.122786479344974              0.8362992827697975
H              1.4897027644928469              1.2888957611953147              -0.5154728299432059
H              0.9307778036818484              1.1827773607806586              0.0023185854763710413
H              -1.6380518683493352              -0.928432277808368              -2.348733157158795
H              -1.4304252660740215              -1.2459949100348957              -1.6478028627693555
H              3.8055001519494938              1.6488700957873637              0.6304853177925377
H              4.299155635404808              2.119062299651893              0.9497158362888468
H              4.038922773009869              4.223516153197396              3.2061338836516513
H              3.825577001079632              3.8205127398439607              2.5613289456900814
H              1.3861934514537142              2.48702569603451              2.73428583903089
H              1.5688876249881654              1.8026028964239609              2.764038739715863
H              1.9597081601205555              3.860218956117372              0.3780699985944875
H              1.3927401826119725              3.976588006889314              0.8868735662413763
H              1.5127486385524769              1.2976893222144423              -0.3510142085169809
H              1.0373544237247645              1.166580948753211              0.2543071258253637
H              -1.623372559852943              -1.1051654371333088              -2.2706764738822294
H              -1.572726238635774              -1.197289377721603              -1.5740259112787094
H              3.612404863137594              1.686916383431461              1.0012087205842972
H              4.216854427261422              2.0126345030477713              1.0178974008747745
H              3.925160456864942              4.440913608941199              2.9620112259604605
H              4.008088954084714              3.9436802639594704              2.439948278679997
H              1.3030043123879929              2.3038551189974132              2.5440592047396793
H              1.7703451542706445              1.775773713798322              2.786353417116109
H              1.9539309356520442              3.8601615311993385              0.578609137641298
H              1.3292411907024433              4.174664936339537              0.9088988539294075
H              1.4719349034627671              0.6372833513527686              -0.1867664010248435
H              1.134571212783242              1.2753704407179156              -0.1455353502339336
H              -1.894818466667055              -1.0505464110079297              -2.5823776047974856
H              -1.7019947456078883              -1.2130628009957438              -1.8524206250412167
H              3.921713307627766              1.5285005926029078              0.9190610385562068
H              4.279106722774628              2.1111817911760586              1.1500253557470912
H              3.858946220750162              4.815329356619026              2.8110595257065447
H              3.5609200017513336              4.162593630654021              2.628897858549252
H              1.2551549985369421              2.431811878311411              2.5231859123690414
H              1.6336317078760798              1.7803806091697227              2.7170628794183833
H              1.9906192393474054              3.6946853816570684              0.4576806970614821
H              1.3911602170730293              3.9685118901071785              0.7129672148305379
H              0.9596169660574385              0.9227267007219736              -0.5109500193131699
H              1.2444015968571136              0.9435082993491547              0.12382801206907733
H              -1.8505789250481834              -1.092088848231347              -2.7940750401705565
H              -1.3181543560308435              -1.1211404453897713              -2.159176164163543
H              3.9698910246249612              1.61471279946498              0.8330509995546124
H              4.470904555979303              2.141154217804214              0.778295735217156
H              3.850997792670758              4.726573021873305              3.0755842774912785
H              3.7462927093963336              4.415866241705912              2.4267786860721743
H              1.31916026892059              1.917081587957797              2.300168303759592
H              1.7211833514106103              2.4200855884186296              2.765717248054728
H              1.703544516028415              3.7694636589756048              0.2413341279472768
H              1.58347040420936              4.21884408728765              0.8439854539119548
