72

H              1.6717376635517762              1.162890559002449              -0.5623306645579421
H              1.3206805861186193              1.2729983827438538              0.02593119704510717
H              -1.881750514308221              -0.7361044669793958              -2.470061495857474
H              -1.3572956343468723              -0.8950261565815163              -1.8523213472405546
H              4.02198970584913              1.7265635037138793              0.8675029672755827
H              4.578730324488328              2.207652972036038              0.9086126050905444
H              3.812705300231462              4.339288027189837              3.0926368899995254
H              3.9217950830761295              4.1622455525072555              2.4065563077162846
H              1.4209724221178281              2.2097678015532027              2.239096626475422
H              1.785478219981142              1.8472866589431498              2.711719974049551
H              1.7264676282424642              3.82652735479803              0.341981999162208
H              1.5473839876536553              4.1594042143489975              0.946521247450843
H              1.8350054012791999              1.1009182912039484              -0.5079043010890542
H              1.317174720008908              1.2318910812517383              0.009338734708131447
H              -1.5468938434075592              -0.7249616284317633              -2.4499438117594803
H              -1.1579872490802694              -0.6442206776261181              -1.863642788094574
H              3.7161051562723495              1.731457619101981              0.5752027007457345
H              4.282632204167308              2.120726659341609              0.8697094770580596
H              3.8671915993998556              4.210108012756328              3.267628515784741
H              3.829943624193179              4.322156756367687              2.5615901001288637
H              1.5215085942762423              2.3541124378595093              2.419396392340536
H              1.901019832929056              1.8375352216176475              2.775933591194782
H              1.5870689817656298              3.627826127525197              0.060290715511976276
H              1.6026745819945694              3.906866348291033              0.7643404912456047
H              1.870980750705983              0.9664279178238789              -0.2805733523746034
H              1.1795244553344977              1.122094881287304              -0.053414935130837
H              -1.4767518282841512              -0.8331517394508462              -2.511560771638178
H              -1.0541172617348515              -0.9382678150356341              -1.8518320738349983
H              4.215337231568857              1.6383704570725885              0.7642778865660294
H              4.539240195611962              2.2864320477325895              0.7988516080763801
H              4.070614390150106              4.646269665393503              3.102708406349
H              3.7302788221487138              4.256863421288569              2.562844033442117
H              1.5834324990948445              2.3264608224635146              2.431287768876506
H              1.7370633127337685              1.7984784527865734              3.0193857327277267
H              2.068657237370017              3.7624023043873476              0.25039964175485413
H              1.5427884830765441              4.119195411189583              0.6100248013188896
H              1.7618519334825502              0.9375403258132238              -0.48713747917244854
H              1.1026129775126274              1.2038901721094604              -0.34698210026210635
H              -1.6716766181829255              -0.8226951805902363              -2.608634409312997
H              -1.0862000862958834              -1.129257517871552              -2.121186636653269
H              4.341426082100665              1.6236225667390498              0.6868028440864061
H              4.497434257196832              2.262378716358245              0.8709448718158761
H              3.879445141373638              4.607805619558657              3.206164272586527
H              3.5959425975668093              4.20132226556846              2.5977281552928053
H              1.3598592880137423              2.4095760341922334              2.637465058004542
H              1.681221446194506              1.940605542551568              3.0263335301964345
H              2.025368056761607              3.7129365887677546              0.308199597317797
H              1.4107428537852589              3.8775158214711576              0.644746673789587
H              1.3041374848494725              1.4900865094613676              -0.6422535528776273
H              1.6088420220152064              1.0975563377046593              -0.17552811342105681
H              -1.5966214489693935              -0.7703069560971987              -2.3309873436584905
H              -1.1134821706200608              -1.1300560802975972              -2.058313678892156
H              3.8257131831460027              1.745902152587244              0.863088526652753
H              4.276915045274804              2.294838647793134              0.7844264653865136
H              3.930187266083533              4.222678868840001              3.0863378481903205
H              4.137422188329851              4.38607974077922              2.361441568481465
H              1.4871108774575823              2.0343380850685926              2.6124192864873748
H              1.7826851385545754              1.9768420863329736              3.2120825994696807
H              1.8255292302214763              3.8147548194069443              0.5496311074554612
H              1.307296631358586              4.266137730805358              0.9925141936109154
H              1.7328288797163036              1.0797285628560238              -0.5815368077339129
H              1.2914345884797973              1.5081741863238232              -0.11761908287938916
H              -1.666542360587571              -0.5738970397266705              -2.1280209538707147
H              -1.4175350341582729              -1.0709514019976536              -1.7804642597047502
H              3.7884706163795245              1.8130927387978315              0.7384967858432537
H              3.964779853096192              2.3507756602906396              1.201062446951265
H              4.118833376405633              4.278914873293703              3.0528931083116424
H              3.898689905265227              4.091382198666891              2.3683798202434887
H              1.730089052322654              2.3117423532843313              2.7618628071177764
H              1.5066283920564771              1.636110331236455              2.7749163609023384
H              1.8541048372017286              3.797236923262173              0.5894637284253433
H              1.391259909320021              4.071857901513236              1.0908703327196183
