72

H              1.6923991716465883              1.1796384869831613              -0.5485913652114137
H              1.3103884254098461              1.2791399131721504              0.04389789735139447
H              -1.8473421230054707              -0.7708691560967864              -2.4320004667904573
H              -1.3794993472679997              -0.8766767241349234              -1.8645244562041674
H              4.017938669854352              1.751759578365848              0.8926016498288492
H              4.575649811935088              2.152015899267057              0.9405488211423668
H              3.770738700904732              4.294398714896581              3.083762543246951
H              3.91666804679756              4.158848552704746              2.4331208669928124
H              1.3697536343226804              2.184327919374225              2.250669450372736
H              1.7942008991894625              1.8428269979865168              2.744417872508611
H              1.7395571820134856              3.847539044942515              0.3194847543098099
H              1.5173487085480943              4.136587722412818              0.9699723439949116
H              1.8538870600464759              1.0544937875403388              -0.4975196767971708
H              1.3888712098645013              1.2174567723176095              0.016005039778568313
H              -1.5810886021771062              -0.7186845175322513              -2.4525282880377968
H              -1.1647280307951777              -0.6301653733171725              -1.8872626449467127
H              3.6987670568293507              1.7105470488188708              0.624734704520731
H              4.2919812674530835              2.131291111225458              0.8599840674795943
H              3.824434232883051              4.263714077181668              3.248143757310477
H              3.853566437558608              4.3514485196204244              2.5185982783933247
H              1.5463185707296312              2.32885930157498              2.4252592945850733
H              1.9096651147576058              1.8213202180112027              2.8171735071619666
H              1.5828585856615982              3.5994129521524134              0.10720822762687997
H              1.6047587061500304              3.936035691594318              0.7507534201489594
H              1.8711841802149825              0.9797592557174456              -0.2717290624955356
H              1.1569372654307923              1.0996424681509915              -0.058716077678245854
H              -1.5175277773030593              -0.8095552751277132              -2.548994367729639
H              -1.0703350720074651              -0.9165564824943202              -1.8781366425346018
H              4.202744663702499              1.66190474577306              0.7343590032455343
H              4.523915877845778              2.2870075034899706              0.7670547982038621
H              4.016820211250949              4.667198040109744              3.102996839721507
H              3.738271560112464              4.290682074355864              2.546943449324842
H              1.5961589341734481              2.3152165100560955              2.3895351821169126
H              1.764253657990458              1.8208977737389511              3.000527001369113
H              2.0747805014199026              3.777807903106923              0.2636491940049286
H              1.5341507625188273              4.153733524198804              0.5996081731151346
H              1.7849137772754553              0.9364633851814602              -0.5214566519588535
H              1.0923086823726516              1.2285922408020244              -0.33946293814290124
H              -1.611008793777222              -0.8142360549251333              -2.5760475255096433
H              -1.0758069883024703              -1.096555048532877              -2.1958606831779277
H              4.330963769744539              1.6435586186733997              0.6875068481049995
H              4.4980717435240996              2.278839159686006              0.9306013085222243
H              3.9130049083310117              4.544996562146446              3.235851102279856
H              3.5817122130441184              4.240123238060318              2.6089835801208228
H              1.3482293850898126              2.419487704182064              2.595544945544443
H              1.733788200348478              1.9589606191127389              2.9776523591134354
H              2.0009237543234857              3.699824619011423              0.2720288120044186
H              1.4328996576198119              3.845294547975423              0.7023064758600432
H              1.3075806941556498              1.507228462615306              -0.6448614757245296
H              1.650514586808169              1.1549245573964066              -0.2190884745816199
H              -1.5715404082119226              -0.73471012481237              -2.303705659275894
H              -1.0246158516484487              -1.0917155297479988              -2.03194620735864
H              3.918797866334532              1.746765093733133              0.842044370420396
H              4.264195700832664              2.3279448745572835              0.7404092320242567
H              3.983501168595803              4.215768546524002              3.0470495149405714
H              4.146845286507905              4.37826658288266              2.385315786903961
H              1.511778226333413              2.0557790912117473              2.6180788888977977
H              1.7723287063108102              1.9312100440521525              3.2655386196548957
H              1.7935558381396768              3.8097648561969386              0.5387223549143046
H              1.3586606474258              4.235596481074543              0.9712606683047397
H              1.7537957429702697              1.1417040593607166              -0.5429989039954111
H              1.2895009171475065              1.4548623721513565              -0.11411648568222756
H              -1.670870165205504              -0.5224859165097754              -2.1449821024783513
H              -1.427049388397281              -1.090246636042363              -1.7355136177421668
H              3.7892126892877003              1.7939298158932089              0.6699628987385989
H              3.989108566247125              2.350063123341824              1.1789406892135537
H              4.105248167319682              4.251950826792803              3.075589577931692
H              3.906954912607241              4.071114872799821              2.3924762810611986
H              1.7989013112299825              2.2501556457545697              2.7656927040042785
H              1.4952530182774642              1.6960124400734753              2.7887043659133686
H              1.8856995064611053              3.8199864479974126              0.5912555530763587
H              1.3781387267624132              4.094336394250664              1.0384716484455758
