72

H              2.3100775772273723              1.3611435862319325              0.6832668749033687
H              1.7084612454622876              1.7810404574797614              0.7111583802372378
H              0.6033501494507184              -0.8755682535351327              -2.1903443893644323
H              0.5961757858012057              -0.1506102730883374              -2.1530394088614058
H              5.54983886430368              2.7339913020962427              1.481909098115281
H              5.127405170966842              2.0736468467403633              1.5289148651295763
H              3.982149926661558              5.017383167053804              2.9247741969703918
H              4.372072386750129              4.447939449121331              2.887826459905874
H              3.03648252946189              1.295310087580864              3.387795819717925
H              3.4115655139653853              1.7667133524477985              3.0972660415764572
H              3.3566658062156827              4.016674946433903              0.6298235337203715
H              2.872249419669402              4.480486318652534              0.41081306048703753
H              2.4402561526540634              1.318560089510001              1.0279832247271166
H              1.8320707508306604              1.5171071675454524              0.7846054879495966
H              0.6582750674903187              -0.7793833815174249              -1.8135047748521091
H              0.5469076045660978              -0.03101122702644807              -2.0997645130413463
H              5.566830576908609              2.6777272679597615              1.3800459603623014
H              5.120061414166188              2.109139136641312              1.0133639210942258
H              4.14314667476089              4.623417213661876              3.1601515334245986
H              4.440579120902287              4.229020627387234              2.680750071490286
H              3.108989355963778              1.338816549198522              3.5039300292204554
H              3.188323811507113              1.9100474849659679              3.1098019532605714
H              3.1629599498627887              3.8701977218029624              0.5779453661169706
H              2.675122928500102              4.436247571635636              0.7235072334366102
H              2.1233548869841443              1.4843374852506301              1.1538144855803454
H              1.796707943971951              2.1337654625643605              0.8238569733439312
H              0.35489524206222794              -0.6504183688156262              -1.4502737700088202
H              0.4495751885943426              -0.13596711574793957              -2.009086998906686
H              5.32401104446144              2.5066505703200614              1.2688943630146061
H              5.326322400672022              1.919599693931234              0.8253890473046525
H              4.048726050734769              4.328625853704488              3.2826087939314625
H              4.424148214909747              4.231523258958469              2.6145718774315565
H              3.466295367819898              1.3501495317840582              3.5405211611347696
H              3.1129433322096243              1.9353701759059307              3.274360250209141
H              2.91065632828401              4.023009262256591              0.7459390052999358
H              2.6853021343300782              4.690493261637128              0.4954941397578678
H              2.197804941812357              1.3525132126388466              0.6136072803507259
H              1.8734562238106938              1.8548686072449638              1.1003669807090422
H              0.42777823202183174              -0.5885054424246509              -1.7234263913198975
H              0.23306209459774593              -0.022405629223493994              -1.9697362147986048
H              5.090347196623874              2.4678738172601618              1.328036444821951
H              4.950933347995947              1.741368080297513              1.4099881159456884
H              3.8222287052006307              4.585359914717662              3.268962922870869
H              4.2813232584550995              4.214946659764023              2.816239722512412
H              3.4379390321903625              1.1934365259198052              3.330493579893499
H              3.1175168213145175              1.8419672310521469              3.2719596825091584
H              2.8891888284003326              4.054697284478813              0.5972050514734543
H              2.757858709113234              4.578595897649974              0.09895481350479939
H              2.1893438205404716              1.6480009925311636              1.0399356294072182
H              1.5389056297928692              1.7364470505364773              0.6763332158759806
H              0.8454187532931189              -0.5921951320421617              -1.8553959180223054
H              0.3702155721783266              0.12916448133284794              -1.9032426742168338
H              5.493797994547934              2.5382011721799826              1.2060039253753523
H              5.1342292427624034              1.7931510028701065              1.2797140376148246
H              3.9386890686237424              4.914078758271871              3.085448938591705
H              4.2698959463894814              4.498607314811215              2.5802126742336227
H              3.455997340599225              1.1958681113971557              2.987617822664139
H              3.1546543652146126              1.5933287789169066              3.60590283080896
H              2.8401124533912014              4.175509915066427              0.7022126094259296
H              2.989263717544559              4.885523361703197              0.5101183204671473
H              2.1374863539806275              1.5653730725344552              0.8513022221172741
H              1.4437509471633403              1.603670461530213              0.5682808583468605
H              0.8451092591264858              -0.6661813486815064              -1.9616956999610933
H              0.5845334736019939              0.07134235231922854              -1.799249079686347
H              5.584812186150038              2.412145088848486              1.287509568114502
H              4.941804664681932              2.034045810371976              1.0596499158832247
H              3.9874846510453725              5.033567921311748              3.1772545710529823
H              4.084899301160035              4.460714683227179              2.7538411014463633
H              3.495905467907519              1.3008733262109817              3.2517823411006965
H              3.2158748731820137              2.023351364678716              3.2821563027421745
H              3.0587010600974214              4.093962258601224              0.4635062888808964
H              2.937473202537885              4.784429937172554              0.4960397169300246
