72

H              1.253374870925674              0.8495542734305526              -0.15277272576121037
H              0.6294799934748949              1.2236314972991793              0.0642846618230368
H              -0.8977918954355023              -2.2788829394405843              -1.9079053423672707
H              -1.3675702775053764              -2.745424776388591              -2.397260276881036
H              3.9915472383709423              1.467164327911346              1.5362120637199235
H              4.315764780825728              1.6338346473828222              0.9292595382098485
H              4.262273877572599              3.5463318910958144              3.443316322517857
H              4.25605823443651              3.796256585471829              2.7828046170728586
H              1.6543323630908695              2.448029725647599              2.601589425950086
H              0.8972650286378727              2.386831614398165              2.469337626980046
H              3.0966043412095483              3.668105474631621              0.3346100716429828
H              2.364804239719732              3.568807524873778              0.16798155867492442
H              1.1457561059041195              0.7120829390730475              0.04939110324168666
H              0.6921577415113019              1.2532290415400038              -0.34628209389346093
H              -0.7619481141510821              -2.6887370171433695              -1.9145691605377928
H              -1.4353970707413561              -2.644397019362522              -2.3455123172080374
H              4.184518798265839              1.5070943822451721              1.7538531371695638
H              4.552592796678201              1.761708040705691              1.114028126396843
H              4.155601149537785              3.590087192922498              3.422606461354636
H              4.288776402326286              3.666224765993712              2.7551252934269295
H              1.6843615053649164              2.171035576298132              2.3468089920618573
H              0.9500542770278033              2.3576686393726467              2.175556055680661
H              3.2066973532638787              3.683544410956955              0.0708142420339112
H              2.7268725244844068              3.535902872169731              0.6044293971629932
H              0.7340013320465959              0.9356507993836881              -0.5486053553508095
H              1.073788000235915              1.1245192276516387              0.0677109592440026
H              -0.785448396984889              -2.611269615263541              -2.0566286837609864
H              -1.3850145506006466              -2.850939205234407              -2.3322866275731107
H              3.7517779712240524              1.4676476914548018              1.5423468082278917
H              4.3663180602839              1.3476704610836956              1.1860685341822992
H              4.020024139702266              3.33472137803899              3.453771563420194
H              4.031276687509998              3.7476202544717374              2.845105570275357
H              1.4582106383488058              2.060483058847121              2.4665430917818654
H              0.9300363367292487              2.37855711862232              2.040452112186719
H              2.9465381562737867              3.4565002074094093              -0.0174847883312158
H              2.5905187574264805              3.51255844079893              0.6202316658201843
H              0.8181669605722457              0.6101383390864267              -0.16956194350904838
H              1.4490609580594416              0.9287391224215578              0.005182028897022292
H              -0.9709699302488942              -2.6793290287379343              -1.939570982429193
H              -1.5187636204856765              -3.0702072435184107              -2.3424850710651715
H              3.6980808120839024              1.4469329579714372              1.5555841951989051
H              4.367445278231303              1.232433440814021              1.4232114773541813
H              3.9451216227895136              3.810257231205603              3.296852358269719
H              4.392326281357771              3.653915847028433              2.7837875389680042
H              1.2051597612215856              2.0481792396106164              2.0032339866409674
H              1.205012287602826              2.2352469677979387              2.674276927894902
H              2.9218071225564883              3.461386014344278              0.26631920241805
H              2.2620318552344836              3.7538374934053222              0.46029507276190584
H              0.8966178530645931              0.5767049551715917              -0.5020823095201741
H              0.9643645144344106              0.9937291627566414              0.17926626509367694
H              -1.3842299542099736              -2.683171256216353              -2.1796178181141515
H              -1.7481206674911707              -3.163412373068675              -2.4976400207256173
H              3.9819936847345354              1.2252623250110413              1.5606590055301173
H              4.600648890772717              1.4808164697964246              1.3941031338522933
H              3.750149203371675              3.764324230170213              3.43891485226753
H              4.090542111956122              3.9880524009024865              2.8726898122422035
H              1.2789011399993586              1.9510734403947236              2.3418230879641495
H              0.9838923825237681              2.4820264723126075              2.6243610517942964
H              2.722564728788523              3.7634904728956013              -0.06873405590652662
H              2.198305225972978              3.47559777587601              0.3359958823757702
H              1.2817476938079586              0.6075426899607623              -0.3791483130317739
H              0.8477544875247888              0.9633607403891448              0.07445560175621393
H              -1.1395414887210054              -2.534488763432683              -2.424305759849937
H              -1.571121276001863              -3.013443208362887              -2.4022289165762873
H              4.081677976181286              1.4946234520984572              1.5466761462321557
H              4.617167643204901              1.3903033619999732              0.9722196076964569
H              3.8478131906615927              3.6449712988335325              3.365161838840007
H              4.061283800780766              4.057079335182039              2.7792410641711682
H              1.7985600365193113              2.3317308295387145              2.196963220499525
H              1.1540383908409797              2.622600999950748              2.3882740051926366
H              2.719127126977858              4.165100945761416              0.14927322234803403
H              2.3007991537331884              3.573916596484345              0.3289895094910132
