72

H              2.460759078937644              1.4760895767262197              1.1154584734187585
H              1.739033228627659              1.7063683780233558              0.9575894916070917
H              0.5598362989575913              -0.7602799543284136              -1.6554919627012068
H              0.32221352576935774              -0.055890434051459804              -1.7749600753558745
H              4.802962095137072              2.4849618517451417              1.0369976020087721
H              4.824574593534638              1.7283177324116032              1.329530755773415
H              3.8378248743903045              4.481706769296669              3.1993573894205327
H              4.463269269918147              4.646003020163959              2.9034777367569915
H              3.6312017761899              1.6582208214993428              3.0456909881300627
H              3.0614814962621115              1.8584633681949936              3.514025797054154
H              2.522751123688055              3.914606695028286              0.3623288023539842
H              2.8362387864763994              4.575694347397112              0.24698242144565147
H              2.333215909067155              1.5685649975100628              1.0718354021649246
H              1.8102792828194874              1.8725554763741408              0.7080672528434759
H              0.9154141463603799              -0.7706016215425412              -1.938493763069189
H              0.5209548036545323              -0.12395152970835979              -1.7004167965729375
H              4.844859331121819              2.38720397828809              0.9948479991608494
H              4.873578551928436              1.7226848695127843              1.2508485520102053
H              3.690292937122693              4.821950423734375              3.1295441283354113
H              4.35033007301347              4.705121235579946              2.851559000970444
H              3.4556123964462646              1.3751851319271124              3.057073583458698
H              3.0291732565072502              1.6779340803501743              3.6821800513695955
H              2.709281688870722              4.12832412200494              0.672174639835065
H              2.923805306882058              4.578310885212586              0.08399146164855271
H              2.2870016840430947              1.664731517623733              0.9269868470916883
H              1.5957644875528771              1.5385570709520735              0.6679684400907426
H              1.1517592033471151              -0.7941407995074116              -1.898623274439957
H              0.7039596974746486              -0.25697438508012493              -1.7282643378080418
H              5.257886215314136              2.434879775527748              1.2955714448956202
H              4.875517243660539              1.816210794391929              1.4823263886720948
H              3.949517800140203              5.125266434729723              3.2045905504236454
H              4.36906938798507              4.59766858573694              2.858093456576511
H              3.372670498606427              1.442784792857883              3.323019198821658
H              2.9979567985464004              2.0710582593527924              3.4820089065866116
H              2.975604209549217              4.020400410592488              0.5412273243377076
H              2.874070699299783              4.674828274544337              0.1898926664933322
H              2.495956775943451              1.5799112159192852              0.9592080869740847
H              1.7857482425839342              1.727621342459857              0.6043496528556646
H              0.925020364457455              -0.9623269313174554              -2.0263399405379316
H              0.5732448446214283              -0.394020151615173              -1.8719869918232097
H              5.115305389846092              2.6448091763655515              1.0438499736903077
H              4.9931325179242645              2.2188825382050243              1.5707156647308997
H              3.912733317813073              4.916929222261125              2.8903150407892517
H              4.5851885688125105              4.692413845923916              3.0018364818149323
H              3.486877953832408              1.4529902898222882              3.432189802997526
H              2.9288504794296237              2.0212656120861063              3.3977677120736898
H              3.2196996859875116              3.8506537072774627              0.4132783015845065
H              2.8320896181327413              4.435216080878891              0.3984559746396018
H              2.488751137452846              1.3106234005716864              0.985691513720856
H              1.9305880416840293              1.6470865650372075              0.6423751799819742
H              0.7492850891704101              -1.0943223196158276              -1.9400697555188875
H              0.5564579300307816              -0.28373879828959464              -1.9756463564315718
H              4.986604485408145              2.70319309098958              1.3020350264909524
H              4.974364035586425              1.9865648469559658              1.052766551295652
H              3.8439693666659975              4.660881352361286              3.1781292623415553
H              4.492843391646782              4.4273121713331305              2.9514456239204447
H              2.9330534083452457              1.2054421988888588              3.472576501630693
H              3.1376597321545305              1.939616603736473              3.634902030212049
H              3.0606735507032172              3.8193170256644153              0.7432897237108284
H              2.569071440378955              4.1512867978596715              0.31191553638062414
H              2.5187654044856305              1.4123980323079146              1.0156728146885194
H              1.9873566308489974              1.9652503773537937              1.042966982309502
H              0.8199588590805297              -0.9741705961584256              -1.5963894042482802
H              0.514685478438812              -0.34057471996137534              -1.8379784717793441
H              4.895153748325379              2.5915676243902515              1.1663841413524303
H              5.048157322805206              1.8325877506528063              1.2523414774168786
H              4.090910466164196              4.233438260086606              3.237082206881296
H              4.520278417377146              4.548530364480943              2.7728272178975533
H              3.282106368857278              1.4550394028965663              3.522722546995323
H              2.8727192381432793              2.095427267668453              3.558253945254016
H              2.7167515224261227              4.064535046192605              0.8584801451611331
H              2.746627333650191              4.258679505440844              0.18144842525759627
