72

H              1.4790240366021565              0.9918016080730446              -0.691214160579052
H              1.3316891897446108              1.2749408910345719              0.019622892942688284
H              -1.605814592962224              -0.5874740705316995              -2.357671801212001
H              -1.2467381667866624              -1.0039002978292209              -1.9686751166171124
H              3.947995228837597              1.7351255532003063              0.6057778706482504
H              4.092303610131053              2.435619943043278              0.8685896919713384
H              4.3387638089878395              4.440353387953395              3.1089788949709565
H              3.8608701094789897              4.307518293179275              2.411207034796886
H              1.7420075412973106              2.4724798547294062              2.4528846175977805
H              1.754018751989856              1.7569121094993811              2.6545603303272203
H              1.725849049931606              3.602677109494419              0.3908410465204085
H              1.644283570988328              4.1957556284085875              0.8991375053944956
H              1.5488158071430165              1.2190234237463842              -0.4457409656430835
H              0.8917041559804022              1.3259988751460978              -0.1892326862578178
H              -1.4445586215929793              -0.7905480828696384              -2.377987906754303
H              -1.1364261255119577              -1.0517687575724373              -1.7246865342582878
H              4.215940031893816              1.7780788846677111              0.503355003986216
H              4.449017280125568              2.245370429937752              0.949930707229107
H              4.275394129873645              4.2082945340611575              3.1876212731031206
H              3.6736710739690723              3.9685496857560887              2.7472332859453497
H              1.4460883562674622              2.5135595135313564              2.536441010214649
H              1.5388587461967627              1.8079569627706953              2.617453496514382
H              2.0004392522657626              3.9388474498767962              0.19440199834435265
H              1.539069643899609              3.8857342891664026              0.748718126792544
H              1.7452905166268002              1.1062833872608766              -0.5056109494337387
H              1.1752308795097288              1.300026546196487              -0.07834758801213182
H              -1.4296828743577203              -0.9742487549554643              -2.3708901121052035
H              -1.0792562688380583              -1.0795713423268065              -1.7243805887807455
H              4.049244613635381              1.5822697812864004              0.8261536976395333
H              4.579611728580808              2.134510921810047              0.9505127399347201
H              4.149374382545577              4.264950263615108              3.244381979389782
H              3.7762282260066233              4.034365548897988              2.5935212116893163
H              1.408124327893195              2.3979318204580786              2.7403111411110945
H              1.6041184632696803              1.8111144668882564              2.959050956273845
H              1.8884691783720768              3.674248468854148              0.16124334933189927
H              1.49964831958051              3.8801196416121404              0.7843372061759089
H              1.7339258077484776              1.136090677672519              -0.31460850031600757
H              1.0066839487933248              1.1534274529976216              -0.013669007520569005
H              -1.6429672009828167              -1.0341160066860053              -2.3531492153494726
H              -1.466927364683499              -1.1126669662098392              -1.7077455837482753
H              3.9343384451949017              1.5549719331371075              0.7944059970508803
H              4.298110801528398              2.178433831465546              0.6458140176861045
H              3.7831763168617814              4.664001782389575              2.8647687861566933
H              3.9612976805802984              4.063860576360628              2.52541340662241
H              1.4833153673977384              2.319213451684485              2.8015872933309605
H              1.5229549641343694              1.675392621202644              3.209937269848084
H              2.024591661247724              3.830038496212236              0.5580617678825747
H              1.3562633520785488              4.227642303521371              0.5777651094860841
H              1.5504490585660553              0.9439134886700549              -0.5124786716106241
H              1.0796885144466475              0.9432797729635253              0.14840166862333842
H              -1.9614228749308424              -0.9120126018725285              -2.6265649766199965
H              -1.6669722846796933              -1.41641691091566              -2.000132561627277
H              3.6807754742319356              1.6904254798719387              0.9340301638637718
H              4.301212567914332              2.0727193953423337              1.2249567543920785
H              3.720453657171244              4.6522486396724645              3.0584028981716154
H              3.7069399002592145              4.155883053810266              2.476350952001822
H              1.2376658415058461              2.2290956451616117              2.36223980527829
H              1.7957946074086444              1.9873537064303075              2.880803817951323
H              1.9704711774325496              3.910461291002864              0.6878360713382938
H              1.3132573901765725              4.083640951645676              0.8349788423434706
H              1.1713421547240122              0.9197528627243146              -0.650818253282775
H              1.4714065510952632              1.3471355657834727              -0.12706112872827854
H              -1.858902608002784              -0.8974042213047406              -2.5254122343625087
H              -1.153930145110521              -1.0759593362945814              -2.0744859400743088
H              3.85302972747676              1.7041390325439256              1.0035766980990506
H              4.237335386497795              2.30121506674108              1.092032410789811
H              3.946997067209191              4.5345909025699545              3.0189017168780596
H              3.8591890893368106              4.386926723309848              2.302271705678189
H              1.0897567330058406              2.1736059592633645              2.4300074271155188
H              1.8333813214662804              1.9940278626551917              2.7625910191275156
H              1.5307323141463953              3.728309324093179              0.4299140464930266
H              1.5356587857863397              4.010971599014679              1.131259851153133
