72

H              1.04858667973875              0.76176484131042              -0.5755558841564692
H              1.6792495377471854              0.6020175884523413              -0.22836167610443855
H              -1.0585767371037313              -2.2059455569560207              -2.2627298061268197
H              -1.6454008131614049              -2.3893227826143253              -1.9991723678738087
H              4.216803547763241              0.8111941096829436              1.3545268437594418
H              4.54331830954307              1.4360081278295154              1.0312165800161524
H              3.9486101879041615              3.6651644549104603              2.84705601765888
H              4.156331907895528              4.305149767717354              3.2419607111436695
H              1.258533633412362              2.089020174474426              2.8371399843909613
H              1.589536298396813              2.4505886018546392              2.283207737442725
H              2.5876592663401228              4.276997656304627              -0.09251211386549582
H              2.1283260273276525              3.9227225892228375              0.3259579095687895
H              0.8444762222908652              0.7634224124815481              -0.5204435880011314
H              1.4827521830279238              0.9163905402403135              -0.0565429762403553
H              -0.7881903453315361              -2.2313893671330494              -2.0212118024117864
H              -1.634406112503441              -2.119918008823367              -1.8430548166240346
H              3.966122390080566              0.9494705438957689              1.262540556053932
H              4.115609998007487              1.6244675056347682              0.9833999946825555
H              3.892756731033744              3.5665473735895104              3.0138811117070765
H              4.28914527947261              4.231065045706795              2.867713678217042
H              1.4725448079658359              2.1956814022758038              3.0186410492770546
H              1.7097330888959525              2.208444432966903              2.2211604684160795
H              2.8467125321462063              3.929424319154341              0.01821398931227245
H              2.1609886818304966              3.690138321023975              0.09546885395097338
H              0.8604759769234069              0.6763923916192768              -0.27323959191951125
H              1.5153544867335158              1.009386404573086              -0.4510979848782441
H              -1.0904967494836009              -2.548615804200152              -2.105124276012917
H              -1.7900583076670338              -2.234972030752494              -1.92298466534437
H              3.559462426845423              1.2734491881755137              1.3326282650871342
H              4.259964169770315              1.3800470293797211              1.081306456417324
H              3.630982387049619              3.7653929034181894              2.8166557251047193
H              4.3248620088333345              3.9330903148181937              3.041949596111997
H              1.9546400017114085              1.9977003090161687              2.637325375906928
H              1.5648829535248223              2.289073537377209              2.1065842980355143
H              2.9077747095186908              3.8874269548011733              0.05231005724149277
H              2.2686958673590505              3.922095383174361              0.34712225069746083
H              0.5935046587169052              0.9853309592838011              -0.31797173545454716
H              1.332443403439408              0.9579158605376814              -0.42946000450535987
H              -1.2226236747992454              -2.419650539313644              -2.21094879279399
H              -1.7783684753402782              -2.6823847779390886              -1.941196227919048
H              3.7346788731350755              0.8276043773605978              1.3304807592082253
H              4.2266395640705445              1.232881110415388              1.4618893432308973
H              3.5246613865583836              3.65942260553887              2.8207505317522266
H              3.9818307084978426              4.089824316514774              3.2466571477083557
H              1.6134141976333751              1.9895548784812502              2.8519892526656183
H              1.214813496900862              2.2571230698412235              2.186233906909862
H              2.510215583057737              3.922765626896284              -0.0203182383416729
H              1.9037350954015049              3.72374547817471              0.3499771716297051
H              0.6447760939967155              1.0544300085317797              -0.45506089773823577
H              1.4833552060782957              0.8470024233956032              -0.3489194554147193
H              -1.4577027831540315              -2.257525797344893              -2.3447838003339934
H              -1.8901103231934655              -2.7846571208332755              -2.0503943299704352
H              3.6988375660199986              0.9795285117775118              1.4547324736308922
H              4.30267085587071              1.0965722532335564              1.070381571315053
H              3.510764221350983              4.190430353315362              2.7675898214020735
H              4.320295473419123              4.30968533199588              3.0109040303503076
H              1.9133615142844247              2.0651626377085255              2.797460674240611
H              1.5900824181444575              2.2810204021650273              2.2309026253908293
H              2.455704444785534              3.942502017322944              0.339875586126637
H              1.748696472807167              3.990513970938626              0.09752470876298319
H              0.7203020615986788              1.0169978695034152              -0.7556777901508758
H              1.3632325456280876              0.9390228383451631              -0.40709594546906486
H              -1.473450254681572              -2.1624511456303823              -2.363138700869644
H              -2.0417214968406308              -2.50562713024902              -2.1133517117914193
H              3.8693229320768374              0.8785983238546429              1.0570368278006963
H              4.313703594403178              1.3754936141957184              0.9364328256186722
H              3.5804433262877886              4.043492757691348              2.912312091118892
H              4.232837944730383              4.309229584143967              3.1530404760219826
H              1.6552245785708863              2.022377109913143              2.8811377825704336
H              1.3375270078127721              2.371641637992334              2.350941612651932
H              2.552572171051847              4.156597830353618              -0.08123084922562518
H              1.8885806457283354              4.037705369431834              0.2069326841644736
