72

H              2.372127969923817              1.6237289192373563              1.0743156306257315
H              2.056446243416681              1.8144191210697318              0.47167307399539105
H              -0.39735700814416736              -1.2527298979733168              -1.8680147921205192
H              -0.842876895161818              -1.7977426557406504              -2.316310997575715
H              4.999569582542902              2.1468488902937914              1.6780006341419729
H              5.184908467469484              2.82560709684445              1.32871415168937
H              4.345352460699913              4.874024052897934              2.6118493275269175
H              4.161046312255654              4.208232361280177              2.822499797005485
H              2.650025389430078              2.051392559301778              3.8612209318860513
H              2.9476099266215727              1.8044545115952328              3.155095828281238
H              2.9725397432959086              4.4279943966387              -0.048191381138639924
H              2.850724617086469              4.005492795567738              0.5163060419721012
H              2.2053717709169054              1.0887912170680658              0.9562814299066443
H              2.1900942555075362              1.8699075703072074              0.9055652837461783
H              -0.3657736113502849              -1.2259854161037493              -1.8373138600644232
H              -0.851786459379994              -1.6552563622529455              -2.2181974489180987
H              5.050600987414738              2.281164640261793              1.4436030578282255
H              5.238135269729656              2.9836382189620934              1.3124823663800793
H              4.531696319062579              4.830606349328276              2.534720147248455
H              4.4954265007215914              4.317559290119931              3.1148445183930784
H              2.4512782670430724              1.9341630422771472              3.631381603356406
H              2.9472535938971096              2.170442729072253              3.229654592886023
H              2.849985362565738              4.447827263078867              0.1363317625783079
H              2.5361425962946367              3.8466102491326417              0.5306336872490551
H              2.303361327174874              1.379483430399532              1.0051031160598731
H              1.816217691375978              1.7987952873666229              1.2421070710072255
H              -0.5724625695937606              -1.287102291078227              -1.6820468172956216
H              -1.0678431323884616              -1.4362154881200382              -2.0921233845511473
H              4.7771887223018785              2.2871994743218225              1.0223694134951626
H              5.099402822547115              2.9181738049424557              0.9021017594682897
H              4.533408390076871              4.785149229582255              2.580764193817043
H              4.457710971242317              4.534906649119247              3.2747213910063384
H              2.7116900504149384              1.7732489755511711              3.8521875353919715
H              2.805602918414101              2.2781683959574752              3.2717019925938255
H              2.7580148198783836              4.642386941869381              0.35006019857697057
H              2.8513187501918953              3.9340667249544525              0.3893714769051394
H              2.3664825904166946              1.5867889958083017              0.8238375111201895
H              1.6768306321240283              1.5796236927528136              1.096535578921821
H              -0.5321287646925974              -1.0716628035278888              -1.824610701868429
H              -1.1619637814428534              -1.2355178357343573              -2.138982992851603
H              4.7561917171753105              1.973246322036421              1.3135327127699772
H              5.138331906744831              2.70972981707826              1.1029008881955984
H              4.362675929095783              5.0800790353574925              2.590492196353445
H              4.299994752853361              4.478742663752344              3.118738965347017
H              2.5939889897827233              1.8955993012266248              3.931902670115436
H              2.979863161994514              1.8696050381975495              3.266511579200942
H              2.8274063595579597              4.318701135695978              0.505684652875318
H              2.985060294409138              3.6266492843196523              0.3329559977037497
H              2.358411784055255              1.563821898016183              0.9717998760820356
H              1.7812671883775686              2.0401906020614486              0.9400240060390164
H              -0.15601053544948223              -0.9460968774814154              -1.811028089121857
H              -0.8998703718515216              -1.1965961236530671              -1.9495178112570775
H              4.530945054123333              2.290857029439217              1.4533606711919842
H              5.070191710383965              2.732194948031941              1.0802713237410406
H              4.306153645407276              5.041199503015742              2.490335932189279
H              4.562034045609438              4.470200618229576              3.012484894527472
H              2.838238999339452              1.816814671862471              3.5685882292549924
H              3.200455030709554              2.287225624515183              3.117254885698989
H              3.2278025864622597              4.429714766734495              0.6735544959548196
H              2.741004835381016              3.9338272791232924              0.4125185715232823
H              2.134792252269179              1.4611692976432173              0.8394530113558565
H              1.8104324566826555              2.076992356733986              0.9006106821549492
H              -0.26973635265995155              -0.9960888850533927              -1.6153389511172043
H              -0.8765745807124554              -1.4387286770472707              -2.0383162120909413
H              4.606557639896921              2.292419580538078              1.483281512367757
H              4.919407756010624              2.637947994565459              0.9279230125043948
H              4.094261633295449              4.935871225221521              2.587512318480127
H              4.3852855057900895              4.409579136722541              2.9268346341414593
H              2.999519676216417              2.259227181211883              3.636349861377274
H              3.0942877663587725              2.0023524598852007              2.9600503672103584
H              3.22296857995274              4.567947982120628              0.34768246363012845
H              2.7826777926753277              3.922561316132536              0.4180180997087497
