72

H              1.6404388689236313              1.7855259809266681              0.16658462235719662
H              1.2724247228447196              1.4560122090129612              0.6259618674554716
H              -1.4728879509844106              -0.20238065189525092              -2.2391925968865274
H              -0.7765219163247563              -0.21343141423445333              -2.1498632643112034
H              4.413296263561276              1.690210421423012              0.9215179457470168
H              4.669460419251397              2.317508526737973              0.6085668415847
H              3.3899521734033944              4.062927163251711              2.8845980877202386
H              3.8924239982281414              4.548442888211367              3.026019976208406
H              2.2014530238843957              1.6242689137689272              2.806224078686593
H              2.5137226957238346              1.8000227888848426              3.5306271508110503
H              2.530595886129592              4.158433940917251              0.306059867420215
H              2.0189040805799667              4.088423364553484              0.811073321959549
H              1.435839976006489              2.0902888135758033              0.23915805705929988
H              1.5034282999126698              1.375039930526667              0.2070670844841681
H              -1.2999713423782455              -0.3108806704530667              -2.249720663585214
H              -0.6550877742020841              0.08668644820945078              -2.323732593111133
H              4.387678756164658              1.9108720560780856              0.9570224087990673
H              4.28104421110475              2.344454792639884              0.32015444124677783
H              3.4268461075353107              4.481218315740133              2.385501808582302
H              3.9359074719892204              4.518120032254303              2.9208389892604147
H              2.06203062188413              1.4454794456492273              3.106610118589061
H              2.6928580099947497              1.7160756846174694              3.3869323904906925
H              2.482991484515975              4.18932090352599              0.3772649941307747
H              1.9928369243161936              4.316139607876995              0.9191872244325938
H              1.6544512685625403              1.656514803098006              0.16376640342429996
H              1.1851465406866655              1.2845038275180722              0.5350198197307453
H              -1.350458670158368              -0.02745176085762098              -2.28096062095829
H              -0.55210457014701              -0.08097018018367035              -2.452830331203552
H              4.263097313689477              1.8525875448919813              0.7151290084528356
H              4.276662820702098              2.612351807005815              0.7357904491357579
H              3.4343525614792854              4.318842825248652              2.7295032745349674
H              3.9957901572165624              4.815995064106568              2.7754974616421477
H              2.254032663933015              1.846851137219379              2.7259852171551255
H              2.890593433372716              1.6667433337510322              2.9874203630576903
H              2.5747347057119616              4.269538234920154              0.3332714232869307
H              2.0513591673177647              4.495281212763623              0.9091748519593611
H              1.5594365491295799              1.7852131444394883              0.11877032012708982
H              1.5119918714134086              1.1880443413747523              0.6127590581800579
H              -1.0654662069309366              -0.11169184281670523              -2.225572021710253
H              -0.3871952007609495              -0.05394794041789316              -2.6381411593376036
H              4.630654151986613              1.9143447120925878              0.6460405954770582
H              4.580010772963199              2.606652579559565              0.6621545330659141
H              3.6270208100351495              4.06505020514998              2.7263376025612764
H              3.9601150152608247              4.729331905574704              2.997481186423038
H              2.333340617724084              1.4698225245971934              2.5441590528611218
H              2.4725307295761203              2.107682603092726              2.840352069776189
H              2.563387797525487              4.1982543806925365              0.21215884443410443
H              2.1619133975620692              4.173579388507524              0.8362525120419066
H              1.621333148783141              1.7269332910556545              0.42415527704085665
H              1.6918925346760505              1.0300240946592174              0.6452505667855849
H              -0.8946050632776144              0.09331981895831078              -2.0072899197743017
H              -0.26422838522027675              -0.03467718541039854              -2.2528863570223345
H              4.393299884695566              1.7770144677934359              0.4457404069356274
H              4.67451827853246              2.5410372900893474              0.40077952514191667
H              4.062375639291995              3.977247505640738              2.6544389783580002
H              4.01487691030563              4.497752672466366              3.2629317163050056
H              2.48355531172502              1.4394994889209514              2.7149646897739776
H              2.5852476900864527              1.964466878228022              3.182371376387956
H              2.395160520035874              4.18529567112935              0.22415974265800737
H              2.159773914142549              4.117096142499849              0.9681655303612761
H              1.5597245934192228              1.7419039762877893              0.3062733191933492
H              1.5084292200551221              1.4533818652858592              0.9269851872690373
H              -1.1608167415211397              -0.06225049571417639              -1.9544783492803968
H              -0.47227193999175227              -0.1503177109675107              -1.8088796697718894
H              4.465188000586992              1.653463325526733              0.41292022701385994
H              4.7140738876111135              2.418675355688537              0.3787335366288789
H              3.71752598278171              3.908977979799578              2.8389666170513905
H              4.159705099166922              4.462279148032059              3.10961197910444
H              2.178285522900339              1.4987274780667046              3.0009422331671316
H              2.743109276376184              1.8931871888581921              3.357057767290715
H              2.5205783401761517              4.337303946618018              0.26314991409625277
H              2.110842660802728              4.141253079545695              0.8758411779131203
