72

H              2.3167317953658735              1.5227040337175441              1.1925335132236192
H              1.664814211808469              1.4759638218382432              0.91431957855928
H              0.5735040796284933              -1.0836719275475386              -1.9443805206823206
H              0.39338330180770165              -0.4497236142447783              -1.628241088393908
H              4.630499792560029              2.2700079818534196              0.7833196477882792
H              5.1070630592044335              1.785631129763696              1.047623127535412
H              3.5523478368830386              4.361467164913141              2.785755382884252
H              4.248546514316348              4.587058653862596              2.970819426414177
H              2.70903408610565              2.1368450054585004              3.4456788631068007
H              3.182122831983721              2.1408081018149367              3.9866145276253966
H              2.501675611518193              4.417981916509648              0.7624821684616538
H              2.942587591718333              4.117364465951537              0.25984679490874873
H              2.294006734881156              1.677455115989484              0.979924924773114
H              1.5858938797649054              1.3856599839054597              0.9812754178210078
H              0.6873684675029543              -0.9956158146636097              -1.8496330316960239
H              0.23648110270053374              -0.4510251932905582              -1.4692426230471152
H              4.605504325150745              2.0040873040159446              0.7276738610945814
H              4.720944370209368              1.9946008922513052              1.4482486938744346
H              3.6454742821738395              4.416380505305965              2.8962071141836456
H              4.302804923339503              4.694721919896736              3.038437646924596
H              3.4496788307400363              2.5218109616694675              3.4374110288946307
H              2.8089692242957196              2.0850314405386303              3.863644490755263
H              2.650208222852536              4.2944298327201995              0.4290749013997253
H              3.2041780973089025              4.324917749300807              0.006473350343029959
H              2.0636213212173495              1.531682221392657              1.2415643473551201
H              1.7728492304957688              1.593048605032862              0.6053933882500661
H              0.5966665155713442              -1.1039411999402013              -2.006000761830386
H              0.26732910888890044              -0.59049164485436              -1.645461763251892
H              4.697645307326124              2.340900516808047              0.8022697461816074
H              4.823774227968867              1.9990525284254608              1.5113534180835122
H              3.6121820905438184              4.787931661766486              2.742947207630847
H              4.334262232785039              4.805885230836843              3.0382704261624807
H              3.224279907518205              2.2674755834533746              3.4477125855158843
H              2.865892817938464              1.7041729866041375              3.8852118749825646
H              2.9064553193874927              4.287249777150237              0.6850171924785042
H              3.217700640431261              4.2567843067656685              0.014548877266738057
H              2.2868535921918474              1.1971253080089177              0.7791663653402232
H              1.8089565410118882              1.7285150800494373              0.8387467992605232
H              0.882974344960337              -1.1080963580676              -1.867011687193426
H              0.2509180943034889              -1.0487275127386708              -1.6501067650950434
H              4.840805582559171              2.3094483691849437              0.7104084328382153
H              4.94760356256778              2.2406473623057552              1.36652691480522
H              3.5785576188352075              4.540692238858752              2.867114201400378
H              4.3434625175803365              4.668076724591005              2.9954796194694904
H              2.7734742473067855              2.4057485815595694              3.5085989090704035
H              2.6254599046346287              2.2138742356113146              4.188679830080781
H              3.099452547490528              4.241002167360142              0.7548467513762115
H              2.958161795628251              3.9169311974569707              0.12399278951611566
H              2.4770991489460057              1.5787101843550706              0.9134889846321782
H              1.7782010003561204              1.4595769222945232              0.718574705918687
H              0.6383196945114256              -1.199114810165697              -1.8022556543719566
H              -0.1420949632819136              -1.03532602144678              -1.8537823910356268
H              4.740533497719773              2.5379767340749013              0.7977592491934119
H              5.065500324768494              2.34539459818351              1.4435663816696613
H              3.808705557313345              4.384834006564722              2.569220298563528
H              4.2592366942112605              4.778359307224438              3.013655898410243
H              2.618927792897476              2.550159301827654              3.6238955629010707
H              2.8945767206723003              2.298876323962121              4.311584102003641
H              2.6665002322158364              4.04312617202539              0.8221137504375895
H              3.1558815946193075              3.9741102108816926              0.220393314685901
H              2.555019218950827              1.2241593303109646              1.0958726618652892
H              1.941732321080767              1.1180979666787052              0.7752788743524297
H              0.48339767114910936              -1.1413828782722053              -2.1535057046605455
H              -0.08248810577517746              -0.6998467028886742              -1.6893477676679955
H              4.552117584200081              2.4405332489702305              0.56779897482221
H              4.83745887753515              2.241107295785663              1.2232632545464177
H              3.7208020606191403              4.256280020897897              2.608469995762103
H              3.9935043031794657              4.714652492010169              3.082221094726052
H              2.8559234679777497              2.3652408759278316              3.3966329725649147
H              2.8782556207528383              2.1100035048036125              4.1531617107790115
H              2.438736421128246              4.110590898605075              0.6521016795491533
H              2.9527768004006347              3.9327162617944897              0.12192228429808541
