72

H              2.389963212273077              1.706012078398929              1.0038902160659837
H              1.66773026321132              1.492182731672387              1.1734167938694198
H              -0.021039073218704123              -1.0881577605525528              -1.9791700181530298
H              -0.6754416115586441              -1.1229061384374226              -1.8293102053380714
H              4.7675059665898925              1.8991821985730766              1.073578357868506
H              5.023453576546679              2.5358525497094107              1.0652075904421157
H              4.085388072900267              4.851763071181937              2.5519421880928386
H              4.047084414656973              4.661350980659443              3.278394613823801
H              2.3662031416959852              2.266679946911841              3.8107994819214177
H              2.9456531945597035              1.8256843296918606              3.4590056795882416
H              2.758654562162348              4.313116335463677              0.2655969220174792
H              2.9954716838057536              3.627030746835571              0.47838215463915895
H              2.2437910375877292              1.84164398654808              1.3149045872722427
H              1.7494749917453047              2.0780462967136644              0.8746964007850739
H              0.19566462523757447              -0.9969632064470686              -1.8368830841662667
H              -0.5392684021752496              -0.8751618914992391              -1.720211226043704
H              4.580156935153734              2.0586107129983664              1.1358878966702384
H              5.030514917640915              2.5731000674000217              1.4009322507655366
H              4.02710978441527              4.886298189751734              2.504607606819886
H              4.472300433294819              4.844989263038659              3.0506821579065297
H              2.5449075347513785              2.319949758545061              3.5012457075247925
H              3.2818620460015886              2.095257720801904              3.311412132880583
H              2.971840744034649              4.476527339432681              0.6082823643836405
H              2.884412957530934              3.7654422164882124              0.5540772748367536
H              2.266551458960959              1.6076919550091247              1.12030798710772
H              1.7777223723563644              2.0856412266171223              0.8392554992814839
H              0.11935667867996831              -1.005500592278404              -1.8368256088388084
H              -0.6116353974573747              -1.2698041462585212              -1.672581878998694
H              4.6334967019343125              1.9886242890039245              0.9347338387129492
H              4.779677573970546              2.6746043361137333              1.158188088917523
H              3.844625467702599              4.853107885358892              2.518914233512537
H              4.320229418890183              4.725629172145471              3.115202400135769
H              2.854002542509222              2.478984329480925              3.568378879437934
H              3.025534566532324              1.920950991243878              3.239219041789852
H              3.066921381754574              4.436867980735731              0.10974921287342936
H              2.8056552146203226              3.925948849610241              0.5683646450286106
H              2.3061489563294915              1.6764727591021789              1.022729692056242
H              1.8569821711024432              2.0875427904373365              0.6430939147235233
H              0.11890724576528489              -1.2645347867057706              -1.9646925138929685
H              -0.5758206164684676              -1.5685705517968025              -2.038564259132064
H              5.066245056929932              1.9357692837419656              1.3737028532015572
H              5.244586535084359              2.761232513240675              1.444477408908745
H              4.105260259961757              5.020150017979071              2.486763774802019
H              4.140126310187138              4.477532779460221              3.0058114490352583
H              2.3917951386110343              2.318685105423686              3.7931518794904013
H              2.7919164577281004              1.697910278427647              3.5483645001159654
H              2.7723959734394015              4.354091700266819              0.13957696275762685
H              3.058104033958807              3.78292922333456              0.49576907952381283
H              2.186347245680294              1.2306536091557132              1.1680313491956904
H              2.1149436587975896              1.8182070125065124              0.8205005501649444
H              0.08550274310166309              -1.1987876384838043              -1.7936080406762327
H              -0.5816730056121003              -1.5463739638186995              -1.972156442052525
H              5.0970044382642135              2.2341849426037412              1.1393791990282915
H              5.100469826251455              2.9255340050900225              1.305664363025165
H              4.393422029187094              4.641320797088509              2.512701655466326
H              4.361572460110012              4.732195317382925              3.1956565564414303
H              2.229015954777445              2.43598629406146              3.6211824149891583
H              2.8896577882100387              2.2413407148594686              3.727442600472983
H              2.7109437826393337              4.4297651094405674              0.2920614578741343
H              2.750835525614562              3.7178680981645256              0.3226360509962032
H              2.300911735367397              1.6080610904098207              0.9680416415269081
H              1.635540286491074              1.6498401378681093              1.355839638521748
H              -0.19789329282719              -1.2556873947764395              -1.8716153113074923
H              -0.8917992753051542              -1.1618334196382907              -1.88030348252344
H              4.714629560357505              2.4233984313375694              0.6431726303314469
H              5.19753588680129              2.5677195145519094              1.143491110113265
H              4.096661925103581              4.832415418029591              2.486212724995701
H              4.350917949026561              4.853286020174222              3.2507086911788234
H              2.3843085349311863              1.8567125509548243              3.81717415974392
H              2.9817782040756793              2.2419533204049267              3.5377744663592465
H              2.646070270590007              4.410924280651007              0.3328364800401492
H              2.826785738030242              3.7625893847006506              0.6045449491590602
