72

H              2.2860967004527035              1.8428919041373244              0.6223617302286368
H              1.5776939124185003              1.7147018176358588              0.905597676304872
H              0.13573565826646158              -0.13802199111953783              -1.885505042236016
H              0.41436488292085366              0.38454230825097774              -2.376279355181475
H              5.486469116190064              2.2747004698297677              1.0484784136614262
H              4.993942281947858              2.644498013136833              0.5603551915885475
H              4.45058753856935              4.728526302810494              2.9260268899397994
H              4.033143675989452              4.091005580525266              2.824457160815029
H              3.5578160872603175              1.4006195071489638              3.205108667418341
H              3.3561005243724655              2.084636554769736              3.0481536379735457
H              2.962483331300278              4.302635814102539              0.3604450466065824
H              2.699737412484089              4.687118648244212              0.9482762534676117
H              2.3511738993393423              1.5937587279068186              0.600596809045048
H              1.8241009307345069              1.9871177629058523              0.9880125620985091
H              0.06539206853154787              -0.20684226617952092              -1.7954813439918433
H              0.4117764651748087              0.23425918688026315              -2.1771057601074926
H              5.11694673842718              2.2952809796788425              1.2166995045345295
H              4.787706291362219              2.5632702619455445              0.6847378458995873
H              4.437341593796782              4.270240903168369              2.989956570020481
H              3.8718113970016046              3.8665834116059923              3.2947456729332947
H              3.433806387744978              1.5149992155333218              3.202811964776672
H              3.3035606675360447              2.251330199580582              3.0943102897776478
H              3.2030042191416936              4.201434872412673              0.12704812874301694
H              2.7536365405564056              4.348224180987827              0.6772892903920319
H              2.2802714920169143              1.5480742866323876              0.8166649313483504
H              1.7673525033761872              2.000397491692813              1.083443180971256
H              0.03027569869519765              -0.3070734919433346              -1.5816587971823675
H              0.2722136637845768              0.22221097407131432              -2.221100153851593
H              5.240990935404264              2.4522375549562176              1.536138409025623
H              4.958195970255972              2.2527626247926813              0.8024681693563249
H              4.452495054691679              4.445148271219415              3.0659025639780095
H              4.067071802578966              3.8087328651613146              3.117533871537775
H              3.0108942638285416              1.5233553033605707              3.3487136311962233
H              3.4535812599094347              2.0584317316264404              2.9561342667202735
H              3.244181959369798              4.272432823195417              0.19436926814887784
H              2.8448003812408165              4.427841372342189              0.7888746699414614
H              2.228117960438448              1.8261687066732495              0.6158118932285606
H              1.759815416932924              2.0725102772202417              1.063684948250925
H              -0.0882280997513184              -0.3879103936826579              -1.6047982843007527
H              -0.025162427484080766              0.34866679912968873              -1.972548790310675
H              5.365161766666662              2.399889128857473              1.0256785914118522
H              4.859162854465076              2.157255320347065              0.5050354726860131
H              3.975893222673012              4.646715847673419              3.0714547232663993
H              4.299078624885357              3.9732033620208753              3.0026935696413095
H              2.951598445176937              1.8991424918269908              3.442960932861336
H              3.5334452073611455              2.1175071060588735              2.8773284215024764
H              2.9939986266128993              4.350716702336672              0.09158056489774108
H              2.922338196090993              4.550384810332447              0.8316607251995585
H              2.2900587892609496              1.7264436844271844              0.6100313999369302
H              1.6663467795391895              2.0883307642488833              0.5303477724321635
H              -0.31860918501246205              -0.49653290827344304              -2.0368549845549446
H              -0.13447267001079663              0.18588453804414057              -2.2877903566437827
H              5.26539129314855              2.307192589232843              1.447018229222917
H              4.809124258334476              2.198709917581509              0.8143453674875092
H              3.8714578831249704              4.876974998190375              3.0357291815645735
H              4.061620035004055              4.169662629726234              3.09456746698902
H              3.0691113042327594              1.5768484918497747              3.1506132737250776
H              3.447924722303134              2.144142078808468              3.132106596375363
H              3.050356940613803              4.30887663189373              0.3168796375242266
H              2.6122443743985335              4.922117234506948              0.40500679628613545
H              2.407755297286039              1.8492462953202653              0.2726367500562543
H              2.027408809449196              1.5506575782415966              0.8372246852411446
H              0.22002273871920933              -0.40491516703774366              -2.1741282012158822
H              0.07278259023279329              0.30849440196586075              -2.4372942934830366
H              5.310466314773276              2.4348801656213404              1.20589610441018
H              4.613994045029163              2.3709675401031696              1.1322061748586905
H              4.163656969885288              4.830293061897411              3.1015849824595945
H              3.9682020680517387              4.237225703172672              2.6066437006850083
H              3.2041137051109145              1.4132350799907851              3.393324557806486
H              3.169996663031982              1.9926659458293903              2.871172541417053
H              3.0878910367572017              4.211094358676989              0.49423437483248295
H              2.5743274959923244              4.741086913900913              0.4673876955299714
