72

H              2.050128376476099              1.4155809631647438              1.4934649682848085
H              1.7355627105209934              1.4875307400857067              0.862142343634259
H              0.3308442266241758              -1.1173276143372552              -1.7398507485799364
H              -0.1376191462210706              -0.5192309529953953              -1.3824917609005454
H              4.569396112509128              2.3327513017720727              0.5040664335861291
H              4.999695025057548              2.1448805781138884              1.0721167508912548
H              3.98296231177415              4.271388393785053              2.7639141446150797
H              4.164395490976935              4.964916773323061              3.0666581574760245
H              2.8073892452627565              2.782848943017734              3.4888416919417566
H              3.0040170921970217              2.0627999845900393              3.9345869916893874
H              2.613288615686385              4.5407287631064035              0.45609326868978683
H              3.1857030700239926              4.077533485574005              0.6107200549789126
H              2.297898737332543              1.5237416702753575              0.9157931037035757
H              1.538133420674288              1.3976037366010412              0.9356050639487508
H              0.23961641225060004              -1.0249881839835344              -2.056884979961032
H              -0.10504446178902171              -0.621909150656165              -1.525986240591708
H              4.477578494685878              2.0198887738959534              0.6390709398181948
H              4.888611387927777              1.9933178338848256              1.2290972305919554
H              3.3545698637859664              4.733012235777089              2.6677925811885235
H              4.000956351521453              4.753443350628314              3.102872925941724
H              2.8030045067662344              2.659050563478102              3.576995120823408
H              3.003778329819446              1.8895362678507563              3.801218157491617
H              2.5774513403198505              4.303374668385349              0.40525119361505585
H              3.2512111494959224              4.025072728369437              0.29499722036749554
H              2.4749945683432957              1.6598476157745867              0.9927544076275207
H              1.826004439275819              1.4811049055766883              0.6631258009116722
H              0.7929358908202467              -1.0257760983631845              -2.182513625370374
H              0.2041353808057072              -0.885999011305905              -1.738066391958723
H              4.8560671232980415              1.9767766567835325              0.8843677955907007
H              4.930354080506884              2.3417391560073697              1.6045121879337303
H              3.585776475009302              4.710008672724707              2.4741562030196587
H              4.096417961527493              4.731554109500236              2.9392035484820913
H              2.7825017608050935              2.5404185660642415              3.4079922240118092
H              2.932697339510893              2.110020074338132              3.9761977994071414
H              2.7533836226292094              4.289640375600649              0.6833873020824283
H              3.097825382108571              4.09973002710093              0.04533364119764399
H              2.3393380422388              1.4868752481691612              0.9609746928471988
H              1.6465642127776916              1.394172792713311              0.7408227036729097
H              0.8986400150410357              -1.0536060417136217              -1.9914005327989022
H              0.0916177197341694              -0.8944855419494614              -1.736979046030044
H              4.87107620335061              2.533988150875245              0.6968732801364025
H              4.905644464238594              2.163061243727656              1.3291305929325745
H              3.6046870942768465              4.535113689940172              2.7624480826374467
H              4.294452095545739              4.683252091577182              2.8028196419857787
H              3.0862656329639724              2.4670658732094224              3.315032771608817
H              2.9462082985252205              2.2754706376418192              4.108170573686201
H              2.780887100680588              4.29145996546753              0.782775651560142
H              2.8497262250807482              4.083157552652636              0.0017667734507163762
H              2.325159495580748              1.3507085185082628              0.9198882969679809
H              1.6771392596359134              1.5984818153247526              0.7814481652075377
H              0.6414125139123986              -1.3245471125008357              -1.9509901410852197
H              0.05709594589326557              -1.020774288038764              -1.8029603864961106
H              4.723102101787726              2.432241197511604              0.6488158699992357
H              4.996539213725089              2.2739867958377973              1.286556656887751
H              3.5920297333236917              4.352560368196726              2.6645064897405932
H              4.253987383782154              4.516664585736331              3.0377941655376914
H              2.8292179361572605              2.250853695142667              3.7058436547069387
H              2.7916484107556494              1.8577379131246365              4.342364344515806
H              2.903960747624977              4.332432924768484              0.6809577311722812
H              2.9514059181745043              3.913897039290838              0.09030508867654959
H              2.269330419001589              1.1522099218190773              1.0492719215716009
H              1.5362015253402215              1.2707232604954517              1.0199990464964166
H              0.5665776548351067              -1.2427356411211885              -1.8152916974167608
H              0.028273528723007535              -0.7493577963940131              -1.6828039556049041
H              4.897357763746225              2.235952246059472              0.80956651075665
H              5.070789690470406              2.23059375007053              1.4614891157880978
H              3.898587905133375              4.270414458319741              2.701852821836641
H              4.272877223042313              4.641717730953278              3.179422376589213
H              2.561161035547596              2.205483958583944              3.587351549003092
H              2.787312129199739              2.16937263166013              4.324720817358161
H              2.6956251572857344              4.285527953605625              0.6334618723956894
H              3.159874262315894              3.9402336227165793              0.22586970362881983
