72

H              2.2269431019121755              1.7130305731225868              0.19925484442702532
H              1.7315943050615124              1.7112094035346148              0.7844228672828515
H              -0.6545149033591456              0.11561547779490425              -1.87034126843326
H              -0.2118959551342787              0.24637190799345116              -2.5653623519490125
H              4.4060455585157765              1.9601177670131305              0.9304789061044145
H              4.332946034359959              2.625723859574665              0.6783267905649932
H              4.154978387324049              4.352658347623964              2.7211920990868217
H              3.886615122255464              4.2774077140191755              3.447701990577718
H              2.960178613263736              1.0906044730589923              3.1022282314477265
H              2.8931900080664312              1.7987601552520194              3.3933539481151
H              2.5872700546054874              4.490286918042039              -0.054507760170806406
H              2.517357153868301              4.443309516044855              0.7000812252758767
H              1.8101041477776876              2.101358169327073              0.3807161055407969
H              1.9518706477777543              1.6304502017654923              0.9594132222965297
H              -0.4069070646793857              0.09280286960009478              -1.8371637957208549
H              0.04890373001246384              0.4352350781281801              -2.2182246277420714
H              4.947865798221517              2.2136696241108447              0.7387590011025001
H              4.403158225064802              2.5226085154995515              0.34979644387231373
H              4.280808303622557              4.590239816256685              2.69551537442237
H              4.022539381652012              4.1489623072051804              3.1970454866492295
H              2.9552006609008785              1.1339427481290127              3.3375587515430887
H              3.0120127417574976              1.8260174122571657              3.2840702788910234
H              2.8943613965763944              4.4010009696612995              0.02060481161302175
H              2.6881225191754003              4.483443308461517              0.730143823093416
H              2.1707037605884523              1.9314704612994014              0.49586039727360454
H              1.4862617938657297              1.7332238013369567              0.7393182058053972
H              -0.7547102560845349              0.041860281504032586              -2.100028788085992
H              -0.07444981649630532              0.18711069467266978              -2.0357707745623936
H              4.521601551717846              2.0401714426488042              0.7757723452236756
H              4.640154507772852              2.5623334969379727              0.3086323482705502
H              3.923114931141444              4.255342889837256              2.9548719285165252
H              4.03879547726887              4.521596865048957              3.5848095839356526
H              2.7653003855546823              1.63224646120761              3.0480517862547445
H              3.354142161317522              2.029686494185509              3.372983895931531
H              2.877857572303197              4.560631041980328              -0.06283068731212572
H              2.6284847358136183              4.2105912067566855              0.4826990503686475
H              2.2643326650694955              1.9647189812169625              0.20057534859804355
H              1.820018174881738              1.8313870088766369              0.6890023109694994
H              -0.7638490147640336              -0.38366223638762226              -2.112301433125626
H              -0.15177178880927564              0.008763531955314671              -2.295837708234389
H              4.536058083736302              2.0583641305134894              1.2110056399292743
H              4.607049708734212              2.4679227271659143              0.5235887932742354
H              3.915508741764322              4.411112153581868              2.8093878932110976
H              3.984666574995096              4.4962760731250535              3.5077487853806675
H              2.6409369195387815              1.3731106260814538              3.385637484311284
H              2.8701541078655053              2.0864562024492312              3.2685479409503477
H              2.8975841796395514              4.618012300895829              0.09646642784020036
H              2.4882779853686796              4.061590145570168              0.4482912270159634
H              2.0686263060496284              2.0126796527046613              0.1575592252477322
H              1.9929910015854695              1.5019234415907823              0.6981286711848073
H              -0.8596441143203095              -0.1402319202628315              -1.9739661649545062
H              -0.3139646068735964              0.08456415877688815              -2.433481065679878
H              4.770390163596729              2.013731086135756              0.884030492778625
H              4.5070711106454615              2.519408369411415              0.49898590055857633
H              4.015611569668094              4.700483118248137              2.6221746544938567
H              4.038572224335614              4.496148327525184              3.273004479374912
H              2.446267330866489              1.5686321968822299              3.4037536938659527
H              3.1829494735124086              1.716308042193464              3.3770836291716
H              2.7413197505187648              4.515739530722765              0.20754341569908508
H              2.2609105307288107              4.311232403474851              0.6847565150453858
H              2.0460241744241223              2.1572424276630744              0.07623554829731509
H              1.8738884378432765              1.7504220038310867              0.6999198351051095
H              -0.9740883076250934              -0.049438796695364454              -1.9743899264441822
H              -0.4105914455912637              0.1552828929201894              -2.475188543296392
H              4.68799914915813              1.9940898910924936              0.6493310041434892
H              4.441163562613241              2.5117058939689594              0.26041863876099564
H              3.865417903779296              4.632032194309013              2.6652215631629668
H              4.176896766189732              4.38663501041955              3.2647020784634453
H              2.5653963986099515              1.4641096075630582              3.3795316495078596
H              3.2447024766648687              1.578918618356815              3.3203406599538057
H              2.6482409448437303              4.57987532091801              0.05568568437646012
H              2.2293072449027473              4.633961676441364              0.6540053905907236
