72

H              1.4734544764312056              1.5921414091799386              0.18050508304725785
H              1.461104319402593              1.1382251357179594              0.7876087434344131
H              -1.4413164069771942              0.01732432439139983              -2.05101010336141
H              -0.7942435706981418              0.012840810381534614              -2.02475741084417
H              4.352482163467101              1.6684293290589531              0.43558615052862837
H              4.309541424200971              2.4748135827919158              0.38337474829554785
H              3.535747766232801              4.002766858007937              2.5935635556272643
H              4.031722568058339              4.527338188222566              2.866697397432628
H              2.0803336354686603              1.791369775908979              2.708425789592321
H              2.6049530622594856              1.5611571217785516              3.2370026946181913
H              2.230821858511968              4.01761890227765              0.35956414390266617
H              2.0103662572460492              4.4890975753576585              0.9330976301733582
H              1.4908218663429464              1.7640388502710038              0.3348763368100181
H              1.1368816629365381              1.1972504899725618              0.5859233946783163
H              -1.422464194695989              -0.14493842488188913              -2.3593831192811527
H              -0.6569205067521637              -0.10707771229053457              -2.1754247751503093
H              4.117954087598662              1.8514312848716368              0.8303769026111713
H              4.662123137458269              2.2754462070363877              0.5204683680630467
H              3.400617654161881              4.059721087774834              2.8789138722387775
H              3.934311224507717              4.555197404049719              2.985547472182828
H              2.2104333238551668              2.0363241359948554              2.463819998110561
H              2.5369936179452464              1.587760021534301              2.961381059419281
H              2.420637353974219              4.230265221748647              0.16504571765060108
H              2.079123141093378              4.353762560156687              0.8069721081767888
H              1.71161286339843              1.6301291606390718              0.0753897069792296
H              1.203046713962812              1.2844425892376552              0.5848670209172182
H              -1.0840844328285748              -0.311970193297354              -2.302782672408729
H              -0.3648393516345006              -0.012485128265681695              -2.315433826324423
H              4.353737731181331              1.7538481492665254              0.8495624360584114
H              4.556389108171698              2.5272373627519396              0.6650863920885899
H              3.531034882976802              4.035932499703499              2.8176567749878414
H              3.8200018508442675              4.786068686276242              2.9131157785154667
H              2.0281016065467186              1.8579732593032297              2.521090479171884
H              2.5017036209652344              1.8825530778540291              3.1409404954172837
H              2.475891881737009              3.9422019300598024              0.18623323076254653
H              2.1002751922381364              3.9082784400102173              0.8481189266096943
H              1.450248705655424              1.9756477635667946              0.16039205007649251
H              1.3230926743883202              1.2012332638273364              0.3904342806540101
H              -1.2013268794790601              -0.22598060309745527              -2.3804025033453313
H              -0.5522535768345942              -0.2818715978222648              -2.2640062363683353
H              4.683429138488757              1.7648481154709548              0.6172752963074797
H              4.673132739456518              2.4962758752380814              0.37543831849480286
H              3.565423713851097              4.304449067188282              2.8659215068173425
H              4.083653413775181              4.750117046524973              2.6601813794392073
H              2.516210158863152              1.5975617304497451              2.632617369230949
H              2.3097284142037444              2.1739719405083595              3.1710598465422595
H              2.581647200332318              4.046134616124885              0.5520621656447254
H              1.8765837874710976              4.26863825424556              0.6775155765004859
H              1.5780622366486832              1.8991890604038808              0.13648495800491986
H              1.3696801695765537              1.2051864588223515              0.23797174003103808
H              -1.414719683307327              -0.1812769254396551              -2.248123869897538
H              -0.6864428619492543              -0.4523142622771322              -2.2659412944466495
H              4.145876644275612              1.8105969811543932              0.4945632282523734
H              4.569117054220683              2.3715857977643653              0.7750299439504332
H              3.5312250629087987              4.00582433640688              3.0762801640261244
H              3.9892939818428874              4.522139086575353              2.7971100841476537
H              2.10832961244614              1.6523020368196597              2.656164792311828
H              2.3839084941768287              2.0965923975302996              3.1721057133197417
H              2.2906796950838526              4.296438907423594              0.47122818884903594
H              1.8277304819876798              3.853624988211278              0.7901648079322255
H              1.4032560646817027              1.615030360589517              0.08432878008723246
H              1.5938675688188044              1.1859688223769165              0.6751199794841141
H              -1.397887292647388              -0.16830392356204657              -1.9519072446814418
H              -0.6735167352051494              -0.29079908378528874              -2.3339428413040517
H              4.418058806233807              1.7127397174623895              0.7663928841498884
H              4.548128616627239              2.4235718621269964              0.7451741935924528
H              3.769325018044812              4.023462377065391              2.452909868332696
H              4.08935467551107              4.467532783617325              2.9485333815724744
H              1.9727745315253158              1.3017556277933684              2.9695966911742713
H              2.439339915575003              1.8545194810838233              3.109597915234778
H              2.1365124497791066              4.15726487501386              0.46602912472631186
H              1.946543335659043              4.327924144394242              1.1668653598176977
