72

H              0.7274754077514689              0.8471822884353254              -0.4101787174652212
H              1.02512959152707              1.3783062199767273              -0.05702111584814017
H              -1.5195549669819612              -2.1992144190466747              -2.321219046507706
H              -2.136430142819823              -2.24712552211516              -1.7365306134609195
H              3.591366469936526              0.9432021280028872              1.1117988172983486
H              4.141239012469219              1.41308511740271              1.217567625997596
H              3.4845070032040737              4.0447010564731825              2.6037116944558054
H              3.974216695028715              4.05793441520939              3.119100438430484
H              1.4756813259455972              1.826478422787404              2.731382254493681
H              1.8859209204081688              2.3056466147806436              2.2215538099981353
H              2.545178517451037              4.042567477793328              0.30795526234553616
H              1.866925167813903              3.8787656129881682              0.1521935789279581
H              0.6704923925837635              1.0484545268702867              -0.4710425065167186
H              1.3168381231933675              1.0849002309121687              -0.18562809043960482
H              -1.5265264267701113              -2.124627406420578              -2.4942140574753218
H              -1.9887965564447956              -2.325592150132224              -1.95417949014769
H              3.4950093001666747              1.054863682014048              1.2670584146808432
H              4.286281809132093              1.1191963892820587              0.964875074873242
H              3.6754334210183948              4.399273035643493              2.547354768936626
H              3.817006993460602              3.98656485130165              3.1098942330731227
H              1.6173117209275003              1.871024353090931              2.5733435326551857
H              1.8845454723190231              2.5034072353090377              2.307896683777788
H              2.350934607297674              4.037411362706331              0.04976583169405479
H              1.6968552230904976              4.193771990308326              0.4647663644730148
H              0.5693640741264875              1.2157299572662625              -0.4561656130591961
H              1.1112291230111842              0.7034333667917817              -0.3162029920842379
H              -1.3273672265714513              -1.8868569769267811              -2.3345255563149343
H              -1.8411060830921593              -2.352554303496223              -2.07628891287597
H              4.005071000834101              0.823212391961571              1.0553715083263282
H              4.1321257680019885              1.5137747071368743              1.1855109692621109
H              3.7282116013116138              4.135409240091328              2.5507072906081745
H              3.977851778787692              4.464665962150752              3.193913044022216
H              1.500994778604399              2.073859251804603              3.1441608224259503
H              1.4779635494669254              2.128009229271416              2.4007943372582354
H              2.4681983712662485              3.931659605251653              -0.018694563165565822
H              1.7818453025097774              4.047254541559996              0.2510640976974558
H              0.7588415276589238              0.7628505713857855              -0.18137644402654896
H              1.2684986091833526              0.4447299634006702              -0.5945705960497111
H              -1.2132586668102785              -2.047353008284257              -2.589787453164195
H              -1.7159050157311073              -2.1681497341903557              -1.935234756092928
H              4.132408146068028              0.98422641327416              1.1471127548444922
H              4.344665310188226              1.6370680050743227              0.7547572262540391
H              3.720891841736099              4.06984048570108              2.569002353262204
H              4.117144973018432              4.389656631196589              3.080575482188152
H              1.8837925336556405              2.15101940515554              2.9659887676175196
H              1.5126423517039              2.1864363623675906              2.23256862658308
H              2.683145928803655              4.233030459270691              0.00025750010004938726
H              2.099838125634305              4.194644827169315              0.41491352464736114
H              0.7795929970767145              0.7264042191546913              0.06922281329705951
H              1.1961320618286015              0.9250171400481825              -0.5874241658679705
H              -1.0079505483556244              -1.9853199652513072              -2.2083146963270504
H              -1.5028638253505127              -2.0383114588356785              -1.702597335690727
H              3.6045252634919347              1.0535774901244885              1.0387566419542935
H              3.993986086451486              1.6752072438875636              0.9208577548952531
H              3.9439641691728413              3.6125068570886563              2.6379554725967105
H              4.096639552277967              3.9986509103377417              3.1805295128844455
H              1.671271436074711              2.189020182439659              3.0047316733258
H              1.5740743871056568              2.120516692816093              2.2300663546989137
H              2.5084429765315814              4.176315421171122              0.04617360165899831
H              2.205995586151032              3.930290877078557              0.645933785526187
H              0.7448152165639842              0.7540572382780073              -0.15831302939955594
H              1.392492430470747              1.1168600999804972              0.018395573781911905
H              -1.081731295454757              -2.138831059094151              -1.964698400259599
H              -1.720066205886466              -2.22059175476315              -1.5519537040316862
H              3.586359952882107              1.15579207655522              1.31123596365067
H              4.168597458345745              1.6401935476110168              1.3155548292795107
H              3.8860608261213523              3.7692299345718183              2.5405343753462875
H              4.364508974320823              3.9892557599522873              3.0365853510726284
H              1.4403471255517015              2.056298136632051              2.7035383186278428
H              1.9512277310018074              2.0020900597155484              2.3317720079796476
H              2.6647111421094225              4.161005188436397              0.6252554629618742
H              2.0848856337064943              3.890263705537734              0.32085979938655884
