72

H              2.2688376367169467              1.3248065740857233              0.7952524303061074
H              1.6390139877153114              1.770285200716169              0.7690990718093202
H              0.4772351708398675              -0.8616377814565875              -2.072159349803247
H              0.44273972524988503              -0.08434920144103361              -2.1123630650398315
H              5.615120258191251              2.6963893901050575              1.4290958857642928
H              5.229672600000472              2.1057433150678224              1.473745332668206
H              3.959869556806634              5.077343092675195              2.8945669379947523
H              4.438633483115527              4.435865241845832              2.9383003652849955
H              3.0243451923089792              1.370176423322159              3.2414475182702787
H              3.4785696506207833              2.000992021162583              2.986351706621675
H              3.4636267233018683              4.034396013542252              0.48267121541992064
H              2.879869859112493              4.569127843732033              0.5703922954780185
H              2.527464749093979              1.3076410652045158              0.9591522112753653
H              1.8795368554839877              1.6548398347009317              0.690004633883746
H              0.5156968071227325              -0.7728812316743993              -1.9514132387749548
H              0.3932298049791916              -0.13868485404388273              -2.096979910267292
H              5.466737208376254              2.6216220316076226              1.2991988225373674
H              5.211971064062367              2.0813059110901553              0.9480983628940407
H              3.9585270976377744              4.690486908292742              3.1724267846886423
H              4.393380437797402              4.226217208096809              2.7032863040538366
H              2.9957178936916375              1.2787301277563385              3.394005813479415
H              3.174679698516219              2.004293524855556              3.1642794260858333
H              3.174143040669457              3.9446135910506257              0.6447341274944399
H              2.6172022602013563              4.4067728667384              0.6087790225106243
H              2.2296130113278756              1.4862253473647997              1.0758084881865895
H              1.7628718355697568              1.965094986523708              0.8594511087458484
H              0.4091731717361132              -0.6205901036752456              -1.5457848264904686
H              0.39896681546405705              -0.12990235142852705              -2.108192656082326
H              5.48435230051193              2.473108099431112              1.4123846327620795
H              5.322130397202801              1.9423320375035973              0.9036755537104044
H              4.119376733609908              4.355217983623699              3.247177995998504
H              4.319382780028429              4.249728939198847              2.570138542282717
H              3.346859627101887              1.3314617610789747              3.486449618880731
H              3.172691748457478              2.004180984057956              3.2374038103061697
H              2.8155570809983526              4.125462272248581              0.8330065787441311
H              2.620934335048516              4.701786074118395              0.4409325278907758
H              2.1841974076325807              1.5404848341103394              0.5711341369928585
H              1.8630984633532006              1.8442555033657702              1.0945650820865627
H              0.44527667336774696              -0.5943481598062872              -1.712249830899155
H              0.25958281972927044              0.1726538690418045              -2.035949510983463
H              5.237565661730134              2.5010469633294186              1.1991957732317315
H              4.89855993598375              1.8576331639434345              1.309912160720976
H              3.8236321419401524              4.520179025898629              3.1713137842733907
H              4.31621767426381              4.196990848125154              2.717237858913822
H              3.6685514676460014              1.3075475995851258              3.329899907331032
H              3.1044200183443627              1.7865163261255546              3.2194360642439306
H              2.8276691847627786              3.97584125818155              0.5623264019452413
H              2.786856831555953              4.658425482939979              0.2302483844280517
H              2.033343642556103              1.6601344672246257              1.0060423995278085
H              1.4885402153014418              1.789472475812738              0.5438755804977254
H              0.7062908742413462              -0.48744529570326606              -1.8662813943529077
H              0.5337013025197535              0.16614945309828283              -1.9470142543453384
H              5.409446374120747              2.4650178519706865              1.3328938482103134
H              5.093174217066143              1.886302628483498              1.0967366006161277
H              4.012664347248727              4.911188700410039              3.1232280700909163
H              4.115209190131331              4.3290117771211145              2.6486532905884093
H              3.4304724535354274              1.0124669124060643              3.135293539369426
H              3.296020853856118              1.4519631966660684              3.6295340825776794
H              2.8530793839346225              4.102191438320393              0.6636767337116084
H              3.0129617170326632              4.825423119056164              0.579435064399692
H              2.129685921002995              1.4537622604988925              0.8383006945950346
H              1.4262807452136774              1.6759537114910816              0.7419750382564212
H              0.923759720689841              -0.6092321616562864              -1.8398780932015482
H              0.6454929035808492              0.03433296524767052              -1.7875346288750698
H              5.561133918416816              2.401647593703744              1.358950028533593
H              4.98168849553652              2.0859228429325123              1.2311008341846899
H              4.167793755767075              4.949378915301603              3.2319313280666804
H              4.099366265870913              4.391126960433099              2.7087849586327546
H              3.421678203368768              1.3354675544298364              3.4190479037115473
H              3.20187625039761              1.961018415705209              3.1426226716741654
H              3.2365560380790415              4.078880364351872              0.4828437860624217
H              3.0093658214260683              4.823124284190022              0.5366546581034362
