72

H              1.5498802307695936              1.6728018604841115              -0.25304216863186196
H              1.2199225859954457              1.1702327267367427              0.25710965792420126
H              -1.3641577961250206              -0.36753574791247723              -2.4234727456936445
H              -0.705670265678471              -0.5683175398765737              -2.5521745504473037
H              4.460895106988117              1.8203162198011624              0.7574543450007801
H              4.759703986287401              2.4240578284446266              0.7782069697183409
H              3.672082947971897              4.114385986773065              3.0377568605683862
H              3.909390493050023              4.686100691026273              2.6847952784600797
H              1.8280748931319055              1.981071374964396              2.184836023208222
H              2.279513918898562              2.1381025852633844              2.840769725020796
H              2.217272236913519              3.8628606386523905              0.2995739762698176
H              1.7412538316332598              4.041548116281848              0.8694346976439337
H              1.4989412989817166              1.6244729493287546              -0.28772090857303256
H              1.624911050283604              1.251668846761597              0.2945241290106516
H              -1.262076057256061              -0.2241995140060516              -2.1068725149586514
H              -0.533721466458986              -0.4324238515550646              -2.1091079704297258
H              4.267784750033972              1.7490825939879149              0.40333378305453066
H              4.3741041294753735              2.443529664902605              0.6239009622959205
H              3.9543500173426915              3.8289925605517507              2.8900445201142495
H              4.036968054271636              4.545639306908035              2.7966620068469665
H              1.9808151768632287              1.808852442469989              2.5668728704989254
H              2.149106672038757              2.025118616862463              3.262170071538146
H              1.9868676975192003              3.7994815190689915              0.318429843125835
H              1.6671409463597073              3.98130384515574              0.9540297194440075
H              1.5463484890936383              1.5960726511350685              0.058232939575940036
H              1.4633727566553525              0.9780097618701995              0.5690015747989977
H              -1.5222150904286311              -0.17254796746866136              -2.1236336235963216
H              -0.9492255106672487              -0.66802478116381              -1.740987578338845
H              4.196946642007174              1.681200372329702              0.5304278643189845
H              4.534563695969468              2.2822468982411825              0.7045662228211417
H              3.7477799065016204              3.9488500085462754              3.058463038255779
H              4.173016920548453              4.36017215910024              2.6015959736612753
H              2.246608781695701              1.848361368897013              2.5313182366599074
H              1.926750251415053              1.7478484779287111              3.2910612035488014
H              2.1729979065208265              4.0889069036620755              0.4711878327770652
H              1.613402828503602              4.390101157104088              0.9279946001318167
H              1.7470729169167667              1.4529913155318417              -0.06580131850041854
H              1.2256095568922587              1.1263506379624015              0.436499390833006
H              -1.6790687242683715              -0.4370673792765618              -2.3079149156379675
H              -1.1097184154444502              -0.4385696040044626              -1.9637010884686885
H              4.093606645695405              1.6812496561838495              0.7345672218403877
H              4.608673974902191              2.1486330767474775              0.8323163247190061
H              3.3525079999953697              4.004822840660174              3.0667436419700604
H              3.869309439543976              4.346835646340021              2.6268923545328473
H              1.7127584428914802              1.9599308863689873              2.5071875425986523
H              2.020805287507169              1.72218021952344              3.1637095721300175
H              2.056615969346227              3.9706785092597676              0.28739407559315466
H              1.6823167887798915              4.033960526204419              0.9141848910958391
H              1.6901386804823575              1.5953062620825005              -0.04211829414366753
H              1.2934018197040424              1.0865079238731383              0.33663748044095415
H              -1.6083317183067174              -0.4611773451982678              -2.438387202292294
H              -0.9027843210024993              -0.2566267466214434              -2.1531344462218933
H              4.049711596444176              1.7869715381855036              0.9556298377777104
H              4.415454324335508              2.192646267650644              0.5481996900349737
H              3.402437936102644              4.304532392411595              2.751856687926803
H              4.047885741885974              4.600587887298829              2.6375622600333597
H              1.892776895950815              1.7622329859654775              2.500943943557676
H              2.290684078354258              1.855602857802127              3.08447433950108
H              1.9742940463107157              3.8645227171489465              0.3826337056605502
H              1.7763726220563658              4.3706388421641025              0.8416389402762214
H              1.7141070536029814              1.4461437831974155              -0.013392761274734936
H              1.0804778954092926              1.2780299246221294              0.21487247666596906
H              -1.5292892197896042              -0.33119296376859936              -2.4576769756617187
H              -0.7897414048595919              -0.3701299128869911              -2.2074028205363723
H              4.087518314344969              1.7791515775989886              0.6375228006341643
H              4.3539022658820645              2.4584162443061905              0.7332143229304656
H              3.5424124354579254              4.404988930342132              3.1155377859609255
H              3.7978544867804045              4.59029068651014              2.448150360534021
H              1.9190785595149473              2.193290805079542              2.3814737555386305
H              2.3256188926178036              1.83748382835715              2.801154503987456
H              2.251556104490913              3.897606918042545              0.31855228909228644
H              1.7332774443416108              4.161201712409843              0.7712157610828841
