72

H              0.6779289409113695              0.8371111570993417              -0.45009239207723223
H              1.1339062779791518              1.335114243090502              -0.1137558199412052
H              -1.5261893875888495              -2.2075492642756616              -2.3516962199011404
H              -2.0934099665131325              -2.281884086810243              -1.774223484173654
H              3.592923338989384              0.9444480139589618              1.121731193819304
H              4.175181501844747              1.3862473860456161              1.2653652714953563
H              3.4454258654855114              4.044727349332729              2.556581969528344
H              3.929507540849418              4.040444420596544              3.1816746304375076
H              1.4506666359981155              1.8540509167335675              2.6787225899595475
H              1.8825280582954869              2.2949858463720187              2.2741954966189604
H              2.5620791398127043              4.0489854374252              0.29229421175837905
H              1.844745407370687              3.8575267972696095              0.206182070001059
H              0.671037771536177              1.023446711808412              -0.5217220963793842
H              1.3038687258584498              1.158686595889271              -0.15450993519466305
H              -1.5689268084097023              -2.0962704688042955              -2.46071324815555
H              -1.9098673622275089              -2.3317863074601872              -1.9638070987163172
H              3.5115237585424457              1.0664888451608598              1.2548724158698108
H              4.178698720949618              1.1278125057129094              0.960545414541824
H              3.6756410955714105              4.452112579071209              2.5186964035242276
H              3.8527975754967105              3.9851062177501944              3.070347825360226
H              1.6920535873957778              1.8592341805766848              2.64404274260809
H              1.8594380025605743              2.5009497854787095              2.2612345803548943
H              2.307727686789902              4.057756304021824              0.15026920877906963
H              1.674869359409148              4.202498066892795              0.4689731197439089
H              0.6231078405634268              1.2608833056647604              -0.4695341669022841
H              1.1286323522141288              0.6870656761758211              -0.3614996254635407
H              -1.4076756898762952              -1.8701814477492957              -2.303441568453724
H              -1.8829246875975814              -2.327199448316382              -2.083367140365479
H              3.9459816527726024              0.8166810496640131              1.025945451704322
H              4.1041750946931455              1.5671660208563163              1.1818077115716863
H              3.7412942876108013              4.174275552971553              2.5310345911826055
H              4.031734644232418              4.446454210532794              3.2092648395869348
H              1.4851855035875134              2.0476664735133854              3.1447702845103804
H              1.5271538051134084              2.1348282371317517              2.368199052051664
H              2.4639193534515647              3.944972888522377              0.04444947176054138
H              1.7837956215519428              4.104191802660433              0.290883616556159
H              0.7648162569256205              0.7621714550918063              -0.15115215447812028
H              1.2571382606779355              0.424858977134964              -0.5792550435701876
H              -1.2275768087226662              -2.0376311760709975              -2.5787784578147446
H              -1.7151748102365862              -2.1333439273127874              -1.9130614542686195
H              4.197573504317985              0.9445369078520529              1.1220708184600607
H              4.3796687103000815              1.651748262644819              0.8053857187805915
H              3.7420870646266513              4.033490876860883              2.5575711423297434
H              4.081324675838255              4.396304591586575              3.1218611490263752
H              1.7728083478120003              2.1127356046748127              2.9199292713434306
H              1.477036845722264              2.1989385750549264              2.2710863493005076
H              2.64640380751219              4.307888498788039              -0.034393978225370374
H              2.0834675922199533              4.172459789913449              0.44790375121660125
H              0.7692962547301522              0.7153513103963655              0.07278753053369216
H              1.1982723176511092              0.9356807655694432              -0.48300382744399123
H              -0.9757588640756474              -1.9295340414575215              -2.2218462087444824
H              -1.5028280135606507              -1.9991671511492362              -1.6732452923864427
H              3.5821607260905193              1.0604897628290741              1.0617759265769875
H              3.997807140833783              1.7011403067422757              0.8747170504931457
H              4.001476582409921              3.6175141549335232              2.6008720653866004
H              4.0663117217584235              4.0282050504975              3.1811248390728974
H              1.6773325870030595              2.2225200629633988              3.0103916740796888
H              1.64604830363219              2.0895142452739193              2.24945802021099
H              2.516468472540876              4.1158254241076              0.03785610511511059
H              2.181676751405811              3.914272723953213              0.6000980671344767
H              0.7490987697134476              0.7352667327155036              -0.14880819178682506
H              1.3841915051224132              1.1529619713165122              -0.06197310481932279
H              -1.0585898064694224              -2.150463675088669              -1.9894867245262435
H              -1.7562313826861953              -2.1654158666713483              -1.5446007270477324
H              3.5674852036880065              1.2009215481904874              1.265220724385537
H              4.1644326086915795              1.6793628602560011              1.2874375613151976
H              3.835063613222528              3.7871518840844396              2.5130471591499
H              4.355902975113378              3.9735862457851736              3.0304818975879924
H              1.4373374566979242              2.066956539798293              2.7686102263082106
H              1.9936739855142511              1.9962498950585021              2.2793358692648935
H              2.7282536785066163              4.139037559509826              0.5897340493623932
H              2.0975216887135786              3.9121524797462666              0.315568165227196
