72

H              1.7425883961707864              1.9742194727689157              0.17956706223275182
H              1.3653393073777071              1.4764512042447755              0.5472829457818543
H              -1.2279024043665419              -0.2942062624365396              -2.227169604205411
H              -0.4726205032173103              -0.2352566904915764              -2.179130529054486
H              4.2751706044352735              1.82126577856833              1.028962072026238
H              4.699895273768718              2.3069250908214043              0.6291780548375219
H              3.538887391070401              4.1495826786596055              2.811635782209647
H              4.010282854806331              4.585142336056795              3.176843439320289
H              2.2056267460047816              1.441674652439283              3.0275844692343092
H              2.7101596337897353              1.9081610212450129              3.5008217461860363
H              2.531367679283105              4.400557580691119              0.32837329237062757
H              2.173377028575733              3.9801093711136613              0.783211526980694
H              1.6600790585671628              2.0342338655779413              0.13828016548976324
H              1.5619918229624974              1.2984600394236052              0.4346959361318496
H              -1.295436997853279              -0.25690198417024335              -2.133745322374603
H              -0.6026522515607753              -0.018048113750315595              -2.3473142977653145
H              4.655276065026499              1.836592127433215              0.7342444989410437
H              4.298288909805489              2.5063080568530762              0.6070869404948582
H              3.4687168166900815              4.4095797664275915              2.467082719059134
H              4.01263177193867              4.68361933109984              2.878531693973587
H              2.178996435031579              1.3909538517891962              3.2032094347085773
H              2.6784976567668157              1.8615488193848695              3.404146407700914
H              2.5801828541219556              4.16126108591197              0.42263275777965753
H              2.0086735903042108              4.2103490844581275              0.8937832479618564
H              1.578049584152954              1.954983865617566              0.18935645567328524
H              1.3971838693690748              1.277934079885329              0.39408092856786037
H              -1.4253793055709485              0.008095840682386345              -2.2634669345774094
H              -0.6950942696871001              -0.09892786750029516              -2.5462151278812475
H              4.429527776243739              1.8242189039916603              0.6736750691497574
H              4.413018749025745              2.566494873268471              0.4196430987152508
H              3.4419334135269266              4.394179281089564              2.6145387067706363
H              4.109225164892569              4.652231175071671              2.9288183301125446
H              2.276556466419325              1.5742148880997717              2.8223656508057013
H              2.9098504369012357              1.7110851342588471              3.155644927656635
H              2.533353152406021              4.408872285428717              0.3368062003050651
H              1.9646008140110558              4.567515921909287              0.8604890226983759
H              1.7479077901997375              1.6923657639724696              0.18465360929465066
H              1.58497145906977              1.1326886834422154              0.7472549665054384
H              -0.9441055723436635              0.020591156934377356              -1.965361082525477
H              -0.3638153844293635              0.10293586552158271              -2.531711871681331
H              4.198013933853817              1.8998617888775764              0.6562802289566989
H              4.328794753408428              2.575566648855836              0.7240217566245625
H              3.844324309686337              4.063642465426825              2.6055769288185133
H              3.8908246894827117              4.481795969361133              3.2413718062300862
H              2.214875798462987              1.4619342715488188              2.774701189712199
H              2.7808680253012907              1.7806790251376505              2.9998322162426265
H              2.3079106483420477              4.369337689380651              0.20414304126340713
H              2.374074604839267              4.177694701683615              0.8918754055012089
H              1.5707802485545532              1.7033707955726536              0.3655627519498172
H              1.5785074131372772              1.258936420242093              1.0281430418179676
H              -0.8461488960272184              0.10202506365220994              -1.9636074288211682
H              -0.2268317618774695              0.13178629642135495              -2.214964166242765
H              4.8164398782463325              1.8179729165303373              0.6071954528565653
H              4.634841631392531              2.5995135632463353              0.3858977234542825
H              4.041090870842444              4.154883389075052              2.502071360184677
H              3.9997922418445495              4.501143132913397              3.2452968084075593
H              2.5632613284704786              1.3091635920138993              2.78233461432888
H              2.6929194508177585              1.9372039647308419              3.159299064754677
H              2.6360883430650617              4.098645568246901              0.2754743439446849
H              2.363681196816779              4.469996640508822              0.8680075648499205
H              1.6696639297386817              1.9488540496336566              0.279524873327919
H              1.4658069131086164              1.4450244950875077              0.7574450136796751
H              -1.0540242907586033              -0.03554670568684648              -2.213678617838032
H              -0.43045969769708053              -0.00316372636018299              -1.9206819726967064
H              4.420906481924634              1.7667326717354734              0.5072988016272721
H              4.703110284863829              2.4463566800795604              0.17165752566854334
H              3.59177797357499              3.971035249000912              3.019905211872287
H              4.00159527548572              4.551766408276159              3.1984961157121554
H              2.4371065088453987              1.6513994360403357              2.805553162359219
H              2.71981627223906              1.9775411814123578              3.410908566382771
H              2.7140050303942793              4.235478325653413              0.15790069118401073
H              2.164729062961263              3.9986437345407837              0.6142736172681469
