72

H              1.5700189171135426              1.0626642818994767              -0.6422367692168257
H              1.351899160010575              1.251706502824132              -0.013193846008462564
H              -1.7722591019285903              -0.5682964034894777              -2.439877578054188
H              -1.2980846589323132              -0.9837453927476425              -1.9116555972205311
H              3.9977227120536507              1.7445695480269958              0.6920164961605934
H              4.308850370811276              2.365664202693106              0.8041870861938092
H              4.128188237934152              4.443545183957923              3.0408630361597027
H              3.9338220197364504              4.275667975924939              2.426021525304609
H              1.6760096656562036              2.4007902220690243              2.3027616312153283
H              1.782533449912025              1.7786136165632915              2.673008599870371
H              1.7152172473573564              3.696514941419116              0.4170295342975259
H              1.6362192574571053              4.212659952037021              0.8729853091826182
H              1.6268538223744724              1.2503082332623174              -0.4547203545262096
H              0.980946630137632              1.3053227661619682              -0.12124052170563208
H              -1.4525177368778948              -0.7799849702857812              -2.3992769556392437
H              -1.1353109928510663              -0.8559381148090965              -1.773024366664716
H              3.9666658158027115              1.7920744559938424              0.4179523844379906
H              4.401835740791895              2.166591300259829              0.9676704163682132
H              4.1300254232197355              4.115866439969406              3.2889776163177444
H              3.699119543752866              4.087209716451134              2.713566671137431
H              1.415383085159012              2.5142019960909114              2.4341081670729703
H              1.728704927531119              1.8189064436610758              2.6293461655446153
H              1.8320826635630545              3.8494907103280203              0.06615030748982008
H              1.5454538253644956              3.839218035888803              0.7580552692918484
H              1.8299055654467853              1.0079069359956854              -0.4302432625120474
H              1.2241883413212014              1.2713942921675903              -0.06426554006082451
H              -1.3873410540548887              -0.9424056895990677              -2.4032107951508603
H              -1.0091284549428505              -1.0355436887289606              -1.737804700489701
H              4.17680775994702              1.599547357325111              0.8616732563140034
H              4.579098798094664              2.17679013900496              0.9333436857352811
H              4.159335675036536              4.384950209972691              3.1640196023161615
H              3.7787075114365303              4.128883344429982              2.6202718050322242
H              1.4530141474875118              2.4350226910941486              2.6356271518313763
H              1.6467734014444027              1.7126255917365947              3.0506572344889102
H              1.9396740267918025              3.6674642008769474              0.17805566400927297
H              1.5473257082995766              3.9332099360285526              0.7087930940121373
H              1.7359860851450581              1.0261385076299985              -0.34697539340615124
H              1.0642761022577765              1.1557605853018005              -0.18865526479957742
H              -1.7091438794355707              -0.9682955767497394              -2.5052244949703613
H              -1.3336426922906472              -1.123444504907561              -1.8086521029327818
H              4.161481259044219              1.539563897937308              0.7293526343660364
H              4.378204795422094              2.2186068445578244              0.6241086297950034
H              3.760183459155107              4.740481760435855              2.9475305074407467
H              3.832961050118664              4.087666385632389              2.5634857432705944
H              1.4497587346566676              2.335717986986692              2.8065329526945324
H              1.5177816078493391              1.7634465135635842              3.2335529534391
H              2.0234834156329327              3.811534167631616              0.48063981562111346
H              1.3968741154028712              4.11121119521267              0.5167747418234834
H              1.416666824687738              1.1825243018488927              -0.5629971721985272
H              1.2701421414884437              0.9110425284274475              0.07197066268653891
H              -1.8401156529338654              -0.9148787841776536              -2.5059968745845604
H              -1.5343566453835131              -1.323255214889883              -2.1012376954745804
H              3.6747584877964843              1.7542273970698214              0.9474021676107293
H              4.240970792155292              2.0975491708090326              1.0766402465523526
H              3.7639286725261325              4.470578257408119              3.1173684274036044
H              3.8570668750558843              4.2456024566785615              2.416992515726966
H              1.3358107826671155              2.082701329746583              2.444931422774386
H              1.8001764038807493              2.082081307670853              2.955431433807975
H              1.9366734586331011              3.916573179975024              0.6765544643916527
H              1.2539692926867065              4.185704720089185              0.9199590754833893
H              1.378876237432438              0.9371258674924229              -0.6658352882187978
H              1.4536928789161698              1.4932479441858233              -0.16733014709544689
H              -1.7430182219999857              -0.7557463154348496              -2.323320514008286
H              -1.2555777286178258              -1.0966549174986109              -1.9793017956866537
H              3.8079593402699627              1.7168994784740437              0.9534033545174765
H              4.086073205547977              2.399651875217152              1.2364782469796747
H              4.050354677831289              4.43581372804934              2.9967670988737556
H              3.874355323205221              4.282910459884369              2.2943186346187696
H              1.283615572749844              2.3128887893618866              2.5896133481288675
H              1.6951835444719612              1.7493043378717015              2.7458922798125474
H              1.6171825219899423              3.7244369697178747              0.5319871986128499
H              1.4858493900967653              3.9822755010154243              1.1806253106873759
