72

H              0.7601306651924726              0.8483407002491177              -0.49846944867883375
H              1.4635020444470623              1.0875135551612116              -0.33636896809045114
H              -1.5520643949632096              -1.457623617909491              -2.4160627888932247
H              -1.780238101038053              -1.653893649909694              -1.6700543611898333
H              3.9418953202901843              1.3900266381663802              0.7814212128238017
H              4.040202274003459              1.7640261357292422              1.3522311763578085
H              4.192867346756651              4.186114009422493              2.629813350615539
H              3.645418224469897              4.043673138705347              3.1004272756633595
H              1.2541757442317232              2.1328541858340793              2.897728261046933
H              1.4900855166137212              2.1369162126551067              2.109756805693362
H              2.1166691311092936              4.106200796950052              0.20415194469443454
H              1.7312687164821527              3.8838307648503165              0.8269528280262279
H              0.8719579233543372              0.9727695060924574              -0.18267734412733486
H              1.4588489638876885              1.2026416638790294              -0.49485647195984694
H              -1.3579985980241613              -1.5480106513113268              -2.3527845543540877
H              -1.4826410568586965              -1.460992658049955              -1.6694619332152134
H              3.8555387786030377              1.3270344840342794              0.9373998562046115
H              4.2957547366190365              1.9221855708782272              0.7775915988619161
H              4.208318077114631              4.455397926892809              2.4734895489345616
H              3.8429405075817966              4.0117480219505275              2.9003191333848224
H              1.3284460101529447              2.299993066464872              2.7686638293758574
H              1.9512583098954401              1.9257578953002863              2.5129094929424327
H              2.2905575087767396              3.8939384508510595              0.08108418774577304
H              1.8059800117827856              4.07194398736959              0.6718417579496478
H              0.9206737637388095              0.7206441257465537              -0.5580271120645376
H              1.4195833417930273              1.2779894946336219              -0.4259031899467293
H              -1.4191773518692834              -1.590366344741881              -2.401187345352789
H              -1.6784850574634134              -1.6359759525902733              -1.7543511850747566
H              3.8061984352868534              1.3482245745034869              0.6307202610608651
H              4.1136719667468              1.8705026404849983              0.9503942552965486
H              3.93883008507354              4.3323426288996485              2.4910984506171934
H              3.683641466879935              4.001223100443279              3.128402637080575
H              1.3276792102736195              2.39490233503289              2.6254723248850476
H              1.7570006760328427              1.9256446336203952              2.9011222489154194
H              2.561975672261757              3.9405380691672693              0.2080651608854025
H              1.7955120969742075              3.9814013651301248              0.400381554653314
H              0.9467756822910822              0.568542302436102              -0.6388390462830218
H              1.3610953665796917              0.9039844922038835              -0.10762294741627619
H              -1.5182773404241472              -1.7713479790936364              -2.59511562634425
H              -1.5007254494301823              -1.9621983529677942              -1.8368674513178123
H              3.8553427930939015              1.258702172868307              1.0125519551852669
H              4.408211053362506              1.7299236984661224              1.1231093844859616
H              3.921957470412629              4.474251760334976              2.5297796284132232
H              3.611825159378096              3.969697770559448              2.9769975715159327
H              1.0051699191788241              2.1118361394241507              2.7203222328469887
H              1.831113413115598              2.168063980927195              2.6468309013368385
H              2.375300173220078              4.149236123516713              0.48032083462088215
H              1.6859392420622044              4.126492752065109              0.6848112662107004
H              0.8509653395830614              0.652715608386991              -0.5704901701757884
H              1.344301753938599              1.0496476944425313              0.006419660579480536
H              -1.639388302575918              -1.438153021366725              -2.3113921580951877
H              -1.6093379472899099              -1.9789786300458727              -1.8856711023060455
H              3.4746819116076133              1.2900478687406194              1.0557720516456108
H              3.8723380411743658              1.839121793992754              0.949466526255092
H              4.023375463914493              4.587720756054958              2.4225862903238586
H              3.8524898255035818              4.053794565354289              2.8856723164720623
H              1.4886066977707304              2.210386479407593              3.0940950219438674
H              1.6552780930595536              1.9933211479473074              2.3599348296382634
H              2.1677706727315362              3.926314311991652              0.6080706425189797
H              1.5513158428881737              4.154796152914362              0.8982894846128132
H              1.1819237836061112              1.032962233846357              -0.6307747502675661
H              1.2357960468946934              0.6267935510961151              -0.009777746771104592
H              -1.7631524532800518              -1.4336008516966297              -2.3037484422245806
H              -1.9405298925997423              -1.8913446523576394              -1.765101991896902
H              3.5302086691291668              1.3951757756703402              0.9048681431776715
H              4.0094493982896084              1.962217160080685              1.0427172862515275
H              4.088482163395576              4.581022019573316              2.468212111776861
H              4.01982528829086              3.969268161052616              2.858286328560176
H              1.513751758095446              2.0999568015118424              2.7668330003028014
H              1.7779676330887677              2.112445252479142              2.113036241387984
H              2.32461729109915              4.193747742480717              0.7784544540270854
H              1.6376009774079239              4.394256914852813              0.8866693782361671
