72

H              1.1376552064231784              0.8216400177401452              -0.3979901797183699
H              1.068900349748055              1.0439197177118202              0.2504867415402171
H              -1.756966669001988              -1.4553618114540408              -2.47354119868198
H              -1.7489884242241103              -1.5706263655197865              -1.682021974006021
H              3.8790285172361934              1.449069517644322              1.0499383209054785
H              4.353677352559939              1.9297259592816887              0.6501830614574761
H              3.7693593843658513              4.720176222330377              2.641584125756715
H              3.9378760744969297              3.964942003165489              2.604539348819164
H              1.2907545834696708              2.3462759639423902              2.5655422718220815
H              1.7425267220758625              1.8460030792312445              2.878197697535048
H              2.2110386184306305              3.958588306167847              0.7294882969391022
H              1.5476375249140282              4.269662160754596              0.5344475585899577
H              0.9135688804535368              0.957450654991844              -0.42934524837335414
H              1.0389444671692427              0.7715279166194885              0.287973625442508
H              -1.8710745724352027              -1.3273014723982268              -2.579161909952451
H              -1.862829650327889              -1.6559562203477132              -1.9172549089270696
H              3.484252188409278              1.5010681380177944              0.8153385935855486
H              4.007066439274801              1.8487149589592964              1.2780144711647623
H              3.8818118702682143              4.65136407923349              2.889267244276971
H              3.57708454142249              3.9965525719416113              2.6537583636192643
H              1.1433195651369248              2.3790862430170967              2.608849865126412
H              1.725833863444161              2.023129243666179              2.4369271608700585
H              2.003089829153773              3.8935373345704027              0.5384406548089892
H              1.3742849584097452              4.107584034750558              0.9011763844506582
H              0.931768819147222              0.7884173439401135              -0.5098670173470812
H              1.1851132209565136              0.9278416565295449              0.19316257715040414
H              -1.7164117259344847              -1.1749157650838287              -2.5046154448345446
H              -1.5000352249225641              -1.6376777568409617              -1.9454244200740431
H              3.826205906221003              1.4405859872823061              1.115382099578915
H              4.223030004107235              2.1398283048543245              1.15905239488033
H              4.275338846477729              4.783683854333813              2.644265232457169
H              3.751097367560996              4.226863973663556              2.6423065485356005
H              1.2096828013404484              2.2871314246729435              2.776709580570418
H              1.624430150086701              1.9461057178006878              2.2610121458312964
H              1.8840072886267065              3.839724040815326              0.49561879352112437
H              1.5210260272768406              4.197871543638715              1.0646313082421663
H              0.8673130242139064              0.6828116006492176              -0.5461125730646632
H              1.104387721809033              1.1520807196694136              0.01603348267294816
H              -1.654234105697405              -0.9551944843693474              -2.4748399082434895
H              -1.4806836312941671              -1.430654540398775              -1.8555017974255676
H              4.024522198564435              1.5371917518922769              0.6278605749462324
H              4.060124881591827              2.2336446890822415              0.8669008308563997
H              4.332390434206103              4.547707889815625              2.659529367069453
H              3.7222039866369925              4.174649775739443              2.8895254824199337
H              1.4446570030255912              2.4593644149779332              2.823213968715117
H              1.5793267025524393              1.8372599514974588              2.4357453393448756
H              2.006281359458405              3.8205439846277853              0.23384421023087615
H              1.720556364764313              4.095797294464073              0.8383183783651695
H              0.9217876824565084              0.9578393640239679              -0.5918017469246933
H              0.9888198202455737              1.0989047349619336              0.190065118518107
H              -1.3796118577225762              -1.2561271279467627              -2.3854234531482894
H              -1.3148056154789085              -1.3547416019214467              -1.664607060765214
H              3.919915506470068              1.6485950676175967              0.5776068623741708
H              4.366398268536798              2.0799839240639413              1.0323170069682968
H              4.355523358283034              4.237274018177361              2.941342799587507
H              3.7793145511538926              3.8409154834602424              2.8111669881805903
H              1.1576184847545354              2.3519366461919073              2.534916269851541
H              1.8352947011953273              2.0479673425671194              2.5564162506665125
H              2.1579448489654336              4.100407896314636              0.2846381070392605
H              1.7435225590074461              4.059003628017074              0.8421313583175798
H              1.1439634336487374              0.7622288227052354              -0.28631305535670426
H              1.1144594615930177              1.473661225188624              -0.19906792034536752
H              -1.3307234695550016              -1.2936938897148988              -2.2863453874702078
H              -1.3417060852122096              -1.4728033622710384              -1.4740411789037868
H              3.8702344569118723              1.46429122001485              0.8179110830413643
H              4.2727466334481115              2.0570652881390745              1.1862898799713333
H              4.26345605305386              4.2509554582095435              2.683106669984943
H              3.712679841518189              3.8636687955382194              2.9618412072371423
H              1.1509397225655842              2.532604031804116              2.8816628224947385
H              1.604179872701895              1.7908153436016858              2.723652695156359
H              2.21294178004863              3.8733679466589503              0.3951905152892542
H              1.5707861256235394              3.7228083098864486              0.6768179350233788
