72

H              2.3760958711355897              1.6962533760042673              1.1032111775833426
H              1.7578595017513905              1.5768651978591066              0.7751086694328043
H              0.8321364899376389              -0.6736965454803182              -1.7214404289567393
H              0.6493663943325452              0.09745362419897134              -1.7864357263820358
H              5.116947866479613              2.5150861803113216              1.0771373565755396
H              4.799363936117672              1.8241465701184816              0.884838317706274
H              3.985057673749342              4.40498561618969              3.2323273426606067
H              4.346425513021919              4.522201575455072              2.6289742786497707
H              3.715776842234362              1.4457551644270548              3.3111408708917556
H              3.0722326301740064              1.9248200206662325              3.4102234341107778
H              2.418338562992746              3.933310050019228              0.47956639372383325
H              2.758179372417683              4.6115468836004965              0.42650161778009493
H              2.0486959593498284              1.5700884052725634              0.9491280057744158
H              1.5841536904359366              2.0779240972617887              0.6818355968999192
H              0.7290863976824956              -0.7947096522228302              -1.7759847234433233
H              0.8097916271611294              0.022443316418796606              -1.8222887097772371
H              4.947312100676834              2.478410079263402              1.2333627714474642
H              4.8755304801086545              1.7263725309579447              1.2424798163175281
H              3.855630296066969              4.810015329299355              3.2053455815755814
H              4.347243908132822              4.414599970836769              2.850235016326575
H              3.704960374215435              1.0729700113055929              3.580485856199789
H              3.1051932154633266              1.6690205590133236              3.467264336972604
H              2.8576719531549495              3.993473514033128              0.579058966328175
H              2.9502367179130093              4.660639054000165              0.1722121496951665
H              2.27002214107553              1.2818699301646561              0.8898538978788934
H              1.6480958322227819              1.6055553342586018              0.8827410798665275
H              1.051737775810873              -0.7840857794278662              -1.852497502731886
H              0.6932446427300044              -0.17047537440719573              -1.7580110250842602
H              5.1741020321590625              2.4699701674791577              1.292860089047753
H              4.8251545251949              1.9668618511750806              1.7359563279049397
H              4.058714549312911              5.027818836695428              3.210007656142607
H              4.457601944202818              4.457925738373876              2.95358112815989
H              3.38219768672725              1.2230850278606251              3.4780180787440673
H              2.9306251433440056              1.8208472058944183              3.314974831335644
H              3.289128638154627              3.920887416932802              0.4544903396411803
H              2.973607437788229              4.588060563140154              0.2658009465402566
H              2.176275047194886              1.5934716845400667              1.296619212107357
H              1.750673567768331              1.6479016386718555              0.6571970418282321
H              0.8834245099711064              -0.9037383898785674              -1.7106261020789213
H              0.4294108850094324              -0.30590018313539075              -1.7903250633147028
H              5.380443596294096              2.7083009967327083              1.1173127788372044
H              5.231737055971114              1.9554798437041587              1.2406009436547938
H              3.9899038726614324              4.918110708557812              3.117907961164669
H              4.620771794114167              4.6905153301329054              2.8364052908330635
H              3.351148254367946              1.4911644056390732              3.134311078996218
H              2.926209096747602              2.0863385118362303              3.545899809791469
H              3.2197884604029636              4.01585609317192              0.6310873568272316
H              2.890562630869945              4.639682887942576              0.5671296868631917
H              2.510847310047372              1.2878630917967913              0.7422998697630575
H              2.032571532705882              1.7748092162092453              0.8092470437685001
H              0.6412617772967615              -1.0337078230209333              -1.9575744372293167
H              0.19893605294950903              -0.3970590095341025              -1.9159931877122425
H              4.983760983370032              2.60143162241571              1.1350622189955755
H              5.062765251640836              1.87695688805513              1.2725935991008162
H              3.691821039481158              4.697006807756719              3.158405067529571
H              4.406909309091185              4.539388342629938              3.02487369110512
H              3.1355764655678438              1.4280512484243129              3.3585560319582446
H              2.9549181691463984              2.1837699568090847              3.4001685014936482
H              3.024410689317936              3.9977722816740964              0.6377208268042343
H              2.5778054436523146              4.228017865933218              0.11420905085308153
H              2.6927359549976786              1.46739471072485              0.9104826277347573
H              1.9901114553851804              1.7341719787610008              0.864335341706491
H              0.7405051395955635              -0.9170558928404253              -2.0138158262573223
H              0.38653361407560144              -0.2521665637372898              -2.0858554416845165
H              5.06606544909152              2.672274532043403              1.3010054858370386
H              5.180250982620784              1.8253579148604362              1.457086053370431
H              3.865668570983358              4.5223138560773855              3.0209870176538423
H              4.5114306396987685              4.624849308910793              2.72159595265851
H              3.0333791135299273              1.2772715094134364              3.127689478819459
H              3.1832351528983427              1.8616671045338016              3.6157298378683085
H              2.6329340389934526              4.048881109347377              0.8300796684442102
H              2.6231700068790005              4.359938999429122              0.1799291804785376
