72

H              2.3394215743175004              1.2556256261387082              0.9853435781820669
H              1.9326155967704053              1.9228698021095352              1.0435774900746344
H              0.5697081656106127              -0.9557034181966919              -1.7157639777861298
H              0.2073562037804587              -0.33930027439119453              -1.788970956806423
H              4.624675341001167              2.349084170424215              1.1421060170014492
H              4.989370598924915              1.801884787963686              1.5734424814922414
H              3.766638281639277              4.648040384423788              3.1662362307455294
H              4.4905318084456205              4.698014125310431              3.097577797764159
H              3.244674392344538              1.5870139914439492              3.092087308855869
H              2.966050742523251              1.8267136942408777              3.744254980295251
H              2.7974512354647736              3.9772947262116243              0.5990326287205646
H              2.9577638633965178              4.44403007351627              0.026245625891083313
H              2.6104912207773086              1.5419477290626806              1.1006902141056785
H              1.9783221230985701              1.5454706005425856              0.8642607878712515
H              0.9709320425178515              -0.6944359984310988              -1.9011319574599566
H              0.303777105673236              -0.41596061922295513              -1.6767635760795192
H              4.913240396133881              2.3604226431337496              0.9267243059015907
H              4.900424164528678              1.8776795693053503              1.3807160532263745
H              3.740363994478027              4.723929152899604              3.071523553441137
H              4.455833601718142              4.942828027514262              2.866363476221927
H              3.242278329202387              1.8526746692269354              2.8850148050510893
H              2.9526007475326472              1.9743051125235564              3.5537012150899625
H              2.5981992790723276              4.079517428739659              0.6453148616520016
H              2.915288167107681              4.524236661728555              0.10857027716768963
H              2.3071526414359367              1.884828399771591              1.0364418098270762
H              1.848511676471612              1.6688677592731784              0.47344669964707636
H              0.9083603340613682              -0.8573112382807969              -1.9941407502967279
H              0.5370029834341868              -0.29947449352198213              -1.7731440458358587
H              5.051486697560078              2.5089671645704756              1.0859126186771475
H              4.953403497873873              1.798291107953439              1.1147520527429207
H              3.6664564323478004              4.990870408096789              3.0532825744641148
H              4.364399706971351              4.726853122990186              2.828706966198739
H              3.3812543598477056              1.683873904603976              3.1061873960224946
H              3.116615735585533              2.07399347975698              3.660919066791502
H              2.6763950920436685              3.977195774892158              0.6045506518112251
H              2.727121997838136              4.599687210645024              0.21838962703230239
H              2.6327241375937804              1.5070458713126063              0.6226388387158804
H              1.9377264864593717              1.7643457006892678              0.6572849460963662
H              1.0137650076351217              -1.009635252248803              -2.219829921646232
H              0.7385397037797642              -0.38050565765290006              -1.9107677343080556
H              4.830542487143637              2.5268767694097733              1.1193562489399276
H              4.746304695303928              2.129570497803379              1.6528418057841363
H              3.778463524618977              4.849889442956788              2.86861540001708
H              4.400642614696563              4.4902318693891505              3.0546846736446382
H              3.327366228470215              1.3116467641924905              3.6245512849091766
H              3.0131566330269535              1.9345607442374009              3.4805653475698612
H              3.0697848564608035              3.783194113389005              0.4123417489341771
H              2.6416182429252304              4.248426560809136              0.11750029616461852
H              2.371887593735552              1.642739083693535              1.1662079545179302
H              1.813253120155675              1.4925506998562417              0.7041766244166907
H              0.9588165024086649              -1.000461830639125              -1.7873202372847288
H              0.8600746289160324              -0.20904582749431844              -1.9103248855484696
H              5.074743212036576              2.7363985121930994              1.322240631594957
H              4.879431886918191              2.0141004491091277              1.1958936531636826
H              4.054514744151757              4.614760923681813              3.1670526400394294
H              4.677369806363779              4.466359892905446              2.8039628000854484
H              3.146519654762988              1.2183513679310567              3.470384588567617
H              3.1563408750574484              1.9217099562836077              3.7154481788494307
H              3.022959135819398              3.782396443351597              0.7220991717673092
H              2.694673072242255              4.345529272498036              0.41674677657168124
H              2.297572216078282              1.396503989821582              1.1404096553811007
H              1.8488572238652272              1.9464642573001152              0.9535391957884076
H              0.7571479546174656              -0.9707672691211358              -1.4517043502391493
H              0.5482879867092051              -0.30592742088272085              -1.6170516600546698
H              4.725718379697794              2.5651023199163427              0.9384024819087882
H              4.822289602500965              1.8425617720368133              1.048603031569749
H              4.049385524636028              4.24577690866366              3.4033375070511696
H              4.5210520789920245              4.555546479515678              2.9171634373910016
H              3.4615624987880627              1.7352066816395226              3.650030357484247
H              2.8485954299480594              1.9584659033625982              3.544692890855187
H              2.888701619124721              3.9469774611921156              0.7539662721479763
H              2.8863331785163733              4.303534720388564              0.1400133924230834
