72

H              2.5990287922395665              1.5753992300221065              0.6582487797002898
H              1.9428008204463911              1.8569962850640236              0.7054224326525029
H              -1.5922142981812186              -1.4299460274195959              -1.9695577209047606
H              -1.1598482506123722              -1.6075815086474503              -2.6517603009356687
H              5.085479396304888              2.173056469180529              1.1275757385399414
H              4.90017149705049              2.391856520991708              0.49461884851247206
H              4.2421307559665795              4.757348548659458              3.0076806408711905
H              4.6154023205178225              4.05332043208025              3.0446314857460655
H              3.5844448787910097              1.5724444169414022              3.5145562665381203
H              3.0472262245757347              2.18749703304795              3.3994086643116024
H              3.125870247348453              4.2446757851502115              0.8771738151606473
H              2.509704173744513              4.384075086536809              0.4766984073889067
H              2.7300478359720324              1.7994047903141197              0.6750216463812605
H              2.050702781213379              1.8438423732163631              0.960592515222313
H              -1.5016855058991965              -1.537488876461338              -2.029761545553198
H              -1.206325638800301              -1.727244651371148              -2.669344887717475
H              4.899196668106435              2.3746184323074875              1.178276277151917
H              4.963929821478576              2.511592035853391              0.46146226599485635
H              4.557284694738337              4.541237175249648              3.2221278996426834
H              4.58659635915147              3.8729546265825374              2.9033446094244995
H              3.4298354858971165              1.4556160434077228              3.2447945348315295
H              2.9604838231108173              2.0375094867195305              3.305264195317033
H              3.1665336396256514              4.440255697197637              0.7541055132716049
H              2.464985031344641              4.349918286021756              0.5689275015942865
H              2.4111551772997717              1.7530145129512495              0.6918549258684741
H              1.8193218897441295              2.051114707870844              1.0583809752407758
H              -1.657993451069663              -1.4573075009414171              -1.8204600824360855
H              -1.2899594372479002              -1.467055684567686              -2.417180294638906
H              5.007820939815987              2.4164108521542347              1.103849640957023
H              4.720205083906251              2.3599227244123533              0.4473081246052287
H              4.637431562646892              4.5508629368732585              2.9533621728549937
H              4.791122999180719              3.885459305410482              3.223991184241234
H              3.0270191975989205              1.717159649854959              3.673944571689442
H              3.069621356825477              2.326028332591999              3.365318576881284
H              2.9311071447323047              4.486047633342344              1.0055395280291133
H              2.869329176605936              4.359968574171883              0.2815331414604083
H              2.4062532583993677              1.8151822508825808              0.6240768472030492
H              1.758017689177402              1.8389390966482255              0.905220239695379
H              -1.8196836763492414              -1.2681695581390433              -1.7619518486084158
H              -1.6107437061914942              -1.2623157721526852              -2.4793709222908955
H              4.98593010995493              2.2753060405563796              1.1766263405373794
H              4.788301301848816              2.5297607063947845              0.5291515799562904
H              4.617712705074307              4.690184208259268              2.6662405834715392
H              4.804424894472376              4.131953390402289              3.104682397373384
H              3.4682655863290903              1.722834359333905              3.529673696246267
H              3.0619584668575563              2.1598726169339213              3.901524943922884
H              2.7572721324366687              4.56461692624372              0.957622511320202
H              2.9558840748814266              4.489126231237044              0.27993201694643827
H              2.287693380039181              1.5188156560086012              0.45179273062971004
H              1.8166750990505425              1.5173145417956706              0.983408492157902
H              -1.5302163560255393              -1.090510760684251              -1.8309609841382009
H              -1.3805871423623275              -1.3207110504612531              -2.5250019670514354
H              5.0220191124199305              2.4888369772311956              1.2175433581882538
H              4.782053034056892              2.416683310692198              0.5725471757011891
H              4.357816289541952              4.813645353457069              2.988933337450422
H              4.649911263530794              4.13335024303381              2.8365303917902547
H              3.6474282353672214              2.0045351353285867              3.612759346599243
H              2.9809307774277536              1.841295917148614              3.319112245774168
H              2.946404014090459              4.284878952847095              0.9928707190299824
H              2.7480566159410227              4.43517436374081              0.27843277909284314
H              2.3466692991002347              1.353543076313137              0.9469913950412183
H              1.9175736618857737              1.8599064152592142              0.585463423637407
H              -1.3570342333591177              -1.3292226335358426              -1.8329991719512904
H              -1.0135754794007825              -1.5103985170444696              -2.509504245875455
H              5.007377139627458              2.5029864706400824              1.0830184238292941
H              4.896971542164677              2.247961921032015              0.3774287707729284
H              4.275143742726058              4.741914704765544              3.147997394729987
H              4.622061799858246              4.1245811028091675              3.0266902480508078
H              3.5127044005368324              1.8646565275370002              3.5864903034204856
H              3.0455494588440093              2.365076372691977              3.437889354760636
H              3.105732000729631              4.539497427069294              0.9814713828351094
H              2.854082930603008              4.635448981895691              0.24475251981045787
