72

H              2.1571359916023884              1.7562571006528707              0.1836349049482879
H              1.7788876587858835              1.5018540796617026              0.7588498628461916
H              -0.7488450021445523              0.07593028843292925              -2.0452802860199326
H              -0.17549309876792726              0.24943798939997142              -2.6158137849484047
H              4.57994751361199              1.9671459137551817              0.7861791119500985
H              4.356316945442794              2.7247191633809487              0.6917684268675671
H              4.010108399450373              4.266801476643422              2.7102964213883403
H              3.893522985527121              4.53032875955627              3.4112575530104547
H              2.9652181966359064              1.2610553691713031              2.9358746259197623
H              2.7642179175130916              1.887007677029188              3.184599455313392
H              2.7857398575064045              4.372362490206034              -0.04768590543000646
H              2.3995900246204482              4.39708772577584              0.6320421860357545
H              1.7729786855762824              2.06398510729753              0.39960158892658537
H              2.0099103572503845              1.5259840842367525              0.885857292611439
H              -0.48494390336619253              0.11196703668562749              -1.8337982720108368
H              0.09279287714186849              0.3155339034144299              -2.3088974928535118
H              4.818119148695688              2.127896806607345              0.7418884833161872
H              4.527975615049144              2.55433615908511              0.1864463487788272
H              4.348600664448551              4.460115610537889              2.6856911487133504
H              4.041507324304352              4.163510923171813              3.333023675515243
H              2.936835496099341              1.0789962926865055              3.2895895236191137
H              2.924611038061712              1.8403432786915679              3.2763970648072696
H              2.742280728391205              4.524338671121009              0.05419018161093736
H              2.645469448319021              4.325033773804531              0.7679016582775829
H              2.1337070974888594              1.8211074456185754              0.4903563469589758
H              1.5730812225668067              1.746223615002256              0.9447836906040594
H              -0.7864926432575902              0.043326071545467644              -1.8464126890184192
H              -0.06690783469252129              0.14567414902359158              -1.9436401462584856
H              4.418592350369885              1.8981949878974151              0.6628675313779145
H              4.657010320262341              2.5946867754288805              0.38504003360147016
H              4.082196320685156              4.108696114053431              2.936080487469189
H              4.032721909974264              4.475796763233622              3.597325030695098
H              2.718440325056392              1.5694313748155002              3.224533832406205
H              3.202275497624224              2.0223805901954908              3.3642193653064028
H              2.7118723062510126              4.557830926581597              -0.026717222841692104
H              2.646643387341613              4.102461207770081              0.5966764378511421
H              2.1295706425809824              2.0547132645246124              0.12105410742381077
H              1.672133301249791              1.9501573621852568              0.7510944585661135
H              -1.0480390113168438              -0.3300344672001914              -2.140134436083665
H              -0.3071038753932882              -0.00543854260184493              -2.2487653703623285
H              4.712438422459722              2.0533426426431047              1.1179964228352275
H              4.686358287822286              2.3403337496119176              0.478708922350315
H              3.769176630907367              4.407226833554322              2.764183175624375
H              4.008956246332324              4.503169839040711              3.474261442335982
H              2.5136803379108588              1.3758953123438031              3.3168537549052304
H              2.9366182893442447              2.0078850298203066              3.42920069151039
H              2.937748348846472              4.4429731900357705              0.12462349995413861
H              2.354802745675501              4.1854547395084785              0.45927617502136736
H              2.038772887590572              2.128650045668777              0.10435469632573346
H              1.9175828156361612              1.5083986247993288              0.47351303268358935
H              -0.9052955676216817              -0.1609011897458493              -2.0788440477998593
H              -0.4019028850045793              0.17594770826062206              -2.4128368978979995
H              4.53521340767234              2.00140998310774              0.9706762945613112
H              4.279805613686846              2.480621528894331              0.36158155838764494
H              3.817140790842618              4.755647070085615              2.5790835256888625
H              3.977075045695767              4.387701552707787              3.2793508276986807
H              2.3819056277174186              1.6312423390907167              3.464383180173732
H              3.170086189344803              1.4954471923599597              3.5102858103721086
H              2.6550181310799372              4.512378341540636              0.14738771649240495
H              2.238319009387611              4.226019653783509              0.7237307730093064
H              2.0240412720609924              2.0324393452345184              0.15988193149219718
H              1.6495881408945383              1.6827635800475689              0.650453294519352
H              -0.8875096038665474              -0.049207674232404394              -2.0293456407052197
H              -0.3974020187216342              0.13550079881663532              -2.494303695947261
H              4.637826120246515              1.9506464202791738              0.8102904498347323
H              4.360205393061343              2.616405952832407              0.42655793965143673
H              3.8126354816488752              4.705556038776265              2.5630134863691207
H              4.186974291034655              4.497169076549993              3.186468384820286
H              2.536090095212152              1.3948369936279337              3.294321647796929
H              3.2718164833407952              1.6246760507531512              3.275797014235465
H              2.689042631123116              4.639402221696145              0.10468337737089763
H              2.283167102710248              4.758843704103726              0.734623906577036
