72

H              2.309399495993508              1.6542544762433111              1.3537725768823314
H              1.7949399460504574              1.6359152475723535              0.7788540917177158
H              0.3160372314692635              -1.0590256486100171              -2.0045908844004825
H              -0.36250818440939786              -1.0781892473057375              -1.947232032998163
H              4.647398432729557              2.3102577902540538              0.770859019563704
H              5.054348206520997              2.537107656727219              1.3832451796758627
H              3.7772963667805763              4.635038592916185              2.5145573219233643
H              4.323421992483637              4.835383798542904              2.9536991349139634
H              2.7244586865271745              2.4057984261881393              3.414669564957673
H              3.337543547762131              1.9460900326695212              3.672242462077022
H              2.5866510911118015              4.605149865655534              0.3899584337024231
H              2.797710222033704              3.89079637897615              0.2685477818070476
H              2.181564251757034              1.424551946361492              0.9643228210510968
H              1.5464379232555334              1.749221152224179              1.168601932606469
H              0.4211914891409973              -1.1913506066998638              -1.983002417730413
H              -0.314031018982949              -1.0481356198680851              -1.7914400591779838
H              4.864977315850699              1.9435503004337333              0.7600816472234339
H              5.065388692203099              2.322054967879136              1.286599572554091
H              3.727172002702147              4.647051046270373              2.772343738443113
H              4.293135029767398              4.621572986752227              3.162181762713494
H              2.7880510410887847              2.1492878727271476              3.4563948818589316
H              2.986716505520651              1.5218374440956108              3.612897904221662
H              2.9203823738541517              4.637491795866252              0.25934579268370556
H              2.769477009233301              3.886662715155463              0.1979118079496001
H              2.059815997988765              1.6948177220118912              1.2730568737582486
H              1.646748276600755              2.217444470058412              0.8740808496273769
H              0.36484849829867544              -1.3339129498481377              -1.6396232766741121
H              -0.34311552784252786              -1.0815253754312446              -1.6641181644619492
H              5.04361498892618              1.9103887129079538              1.0470360300161392
H              5.126855932338453              2.5539946943204304              1.4088805705435248
H              4.320208528850972              4.588185593346347              2.590368503896754
H              4.370202192626028              4.72970333608063              3.3367267109035974
H              2.3498177462592187              2.3540245930920647              3.695033062820354
H              2.9110748927503827              1.8881617502351347              3.8117961912969482
H              3.104279361851513              4.616871538741407              0.3146266467034771
H              3.053315373362143              3.904186140292301              0.5155041429967161
H              2.148216833384813              1.444941860652175              1.2888005021571853
H              1.6498620274173084              1.7623342731474059              0.8278417950352827
H              -0.10025226753243001              -1.1431520515016607              -1.731204555778044
H              -0.7892524238720917              -1.0743436578319614              -1.5239312945289085
H              4.779524885204162              2.140534838805844              0.7821697457426212
H              4.888503717857496              2.653574741722705              1.3493511424042652
H              4.255970318198386              4.7960143809555715              2.5027039298414553
H              4.256994307147946              4.984781453867688              3.2467434085847926
H              2.2912495832086437              2.5757185274148098              3.778546144734774
H              2.9333151399894044              2.1506213237328646              3.738106148639113
H              2.9183319337885454              4.285344013927545              0.1833712044276771
H              3.1073302253284636              3.895718716641091              0.7433238780593372
H              2.415741799684384              1.6108857610246403              1.1169783613482036
H              1.6927375260238176              1.5612240286903283              0.8370229499671927
H              -0.02742419841300478              -1.1407984251945236              -2.1437453260863637
H              -0.7550374187598309              -1.273575165942364              -1.6915399490715624
H              4.725660588948943              2.1084814832950007              0.8134944289018525
H              5.170786791262835              2.6922762423698954              1.0988126904797966
H              3.9015057620202063              5.0177304968751475              2.380732208754351
H              3.9132849717016795              4.811183411319362              3.078945721355834
H              2.279673760119895              2.2227173697328744              4.036051815970176
H              2.7611015483169266              2.272696096718062              3.483807299248055
H              2.766946938218299              4.221929672862088              0.25621543245436434
H              2.986828337744623              3.774447273169894              0.7937638624994512
H              2.4518198806823968              1.4944883532208721              0.899959641936719
H              1.6837530333922868              1.4513038134287468              0.9377778782111444
H              0.28854098266280337              -0.9672417958777848              -2.0270089627547194
H              -0.3839399625384885              -1.3082819125640373              -1.9389003340401358
H              4.890570517125541              2.04736791998054              1.128401234913187
H              5.130783482927722              2.689483462151019              1.2022577294385945
H              3.7295549470587446              4.786152001011262              2.3874170542855806
H              4.066947737200484              4.703137385189648              3.0460615924844676
H              2.370491819561973              2.7291108853608326              3.6030971902705735
H              2.913274625677338              2.237989285288051              3.7542091917543132
H              2.473166723290163              4.267807431152959              0.45723191509461203
H              2.936154273743412              3.6269754584018874              0.33284977455911746
