72

H              1.3911772683758081              0.7923845319003308              -0.5205834169443735
H              1.1141578411869668              0.9656540561270835              0.09029566600780946
H              -1.2272216779978649              -2.4581939517661406              -2.008696460614648
H              -1.9186336598125138              -2.8280972505431556              -2.240850565734358
H              3.9735511462043873              1.4155154881378098              1.5245141799084063
H              4.594676748309625              1.399335683412262              1.0819959088447524
H              3.93938494343202              3.6448618991474144              3.3844337274948204
H              4.358092485119064              4.0782898738962485              2.8844582262579967
H              1.4371416871301477              1.9938888115167792              2.572106731809918
H              1.2064569790853474              2.5020807347977727              2.0763866659264734
H              2.8773597635384953              3.9591242196791816              0.06494484281569922
H              2.2802329065233344              3.5479231654541996              0.15270131297395145
H              1.2700208937618502              0.4487866578766587              -0.3402781296623651
H              1.064974964716134              1.0573483265648334              -0.0053127377635049655
H              -1.0757427941120252              -2.389460315643755              -2.152236044432289
H              -1.5965549051155437              -2.7731867352107016              -2.282908865223465
H              3.965380864585087              1.3833817394848293              1.4386799837602247
H              4.539796057819683              1.494901546178327              1.1199992539508887
H              3.8391910432452616              3.3644751160199564              3.2838115414058247
H              3.9965782729164054              4.045263264458055              2.9782314971824544
H              1.4647442434823652              2.208296449819245              2.3474172060764533
H              0.8173505351384397              2.3740168509846553              2.3967936118325954
H              2.9374982982820756              3.6408032192666515              -0.19255629919956663
H              2.3185357540565006              3.6119805256702326              0.29229552831168626
H              0.7630170536122571              0.6914549386456872              -0.4259820848864725
H              1.2626114061776055              0.8167490428179288              0.11269222257780573
H              -0.9413600090443508              -2.532222296947126              -2.146502686349964
H              -1.4189280319822482              -2.898579067788078              -2.492025767725912
H              3.982050613670609              1.3838366578831558              1.8081560677426722
H              4.492655802339051              1.4923874801927222              1.2459825479780997
H              3.7400407052373157              3.5808601455910956              3.271374463008192
H              4.198667555896095              4.068259168225394              2.769794236446994
H              1.7739489954418828              2.198605874418009              2.382954106799558
H              1.0136611324748146              2.399597366245681              2.4098304228458827
H              2.9482890385233813              3.1551533244688637              0.008725315892543417
H              2.4061238128863787              3.6029027668768006              0.2648080856364327
H              0.44857160597312556              0.5890366027177655              -0.4044104242905069
H              0.9625438172588443              1.052304510155679              -0.23616657064954205
H              -0.8578234707662739              -2.6862479187934354              -2.3390651096479815
H              -1.634876671772549              -2.834481165800135              -2.449244938654077
H              3.8788303087010596              1.3675348661492304              1.5700035922092046
H              4.320084579330557              1.559440026242156              1.029428707901137
H              3.698037236173692              3.843415863387574              3.3728985544158956
H              4.08626245957854              3.888309270840682              2.6934137081786904
H              1.907776932507076              2.2672496424319886              2.299448311417727
H              1.1163937636252128              2.3970159605712693              2.307731487721912
H              2.823278041147169              3.6600464449987307              -0.09966180856391094
H              2.5397217992853762              3.5038767125382435              0.5288799853308781
H              1.0008045443203224              0.6408392563043924              -0.2765762615875522
H              0.897842182493295              1.2703966054545988              -0.0348407187027212
H              -0.892280301943669              -2.6591585724917017              -2.153543137907708
H              -1.5469757232255514              -2.9271285447366227              -2.288064879068269
H              3.7433491458725117              1.4060718128971363              1.497468626458388
H              4.394625183175418              1.1007491170051849              1.133202943634367
H              3.96962141635208              3.6167246638385087              3.4394377366782707
H              4.381198183862634              3.826070059684758              2.885275464190551
H              1.6834945207650844              2.139324932394111              2.2665155608358294
H              0.9756432771432985              2.4713698369158834              2.4097804204907414
H              2.8497143319808296              3.910726944877042              0.260010651387874
H              2.202344697285822              3.741864739976126              0.5551700107849705
H              1.24471842736779              0.8575957356276341              -0.45770462720917193
H              1.161956386968689              0.9498723616908298              0.2599198077872475
H              -0.9865795152301446              -2.5649212093256706              -1.7153429257792205
H              -1.6173618914710464              -2.8392238199807767              -2.10113058870819
H              4.051892460878971              1.0280259037612662              1.5689833788811072
H              4.515286927638948              1.4780955268231701              1.3065137565032146
H              4.217811347429176              3.700749867650944              3.5401113600764784
H              4.407085257224412              3.8135355113834923              2.774910337002541
H              1.4017594542540042              2.026117258904434              2.5933059719178053
H              0.7260221387925839              2.4686818416505907              2.392106084014522
H              2.6783293395071057              4.02467936868952              0.4176598453363742
H              2.186413963464122              3.5734448723585257              0.19946881521826373
