72

H              1.664443704277625              1.11837196129122              -0.6129657943218907
H              1.312983195053506              1.275865488801952              0.027253051451141163
H              -1.8580859539696983              -0.6972644454082289              -2.4610771282070263
H              -1.3703612801120382              -0.9008678573448642              -1.8901561365285857
H              4.015596860143979              1.6957917037696295              0.8128996411142088
H              4.547652006512628              2.2957009792051215              0.8578879710328399
H              3.896085008745969              4.412038889648676              3.131213586277498
H              3.9357186408982807              4.173568986470341              2.3430193998282314
H              1.5037136949134582              2.290669940891916              2.216277577094391
H              1.7882239558081134              1.8130354968057893              2.696724080316137
H              1.7219650331617888              3.763751732026811              0.3506489141551675
H              1.5809421018476015              4.2153757629276045              0.9371918171648903
H              1.7796301861303134              1.1716530519723702              -0.5080700346911176
H              1.1937901884476212              1.2594432130712057              -0.015762849592866224
H              -1.5158920547598538              -0.7548240955413134              -2.4694694172297993
H              -1.1325498728307377              -0.673677407393517              -1.7986779771897297
H              3.784535751735158              1.7815681628222433              0.5099837454020125
H              4.277947065579222              2.0969745485587366              0.886205479075496
H              3.9540839521019957              4.139925357259415              3.3231528391862013
H              3.777143481117921              4.257622304173531              2.5979636619602746
H              1.474848942510376              2.394558338393203              2.4142652256906603
H              1.8730890975690095              1.8616955715022008              2.707753410301525
H              1.6222347353148907              3.6972818532988057              0.024482909981246588
H              1.597378692293901              3.860436279127418              0.7655828166166841
H              1.8547067002691116              0.9579421330397796              -0.29722019950965095
H              1.2245402674914607              1.170706952325752              -0.06856966294697718
H              -1.3981900619184133              -0.8835305204621569              -2.4289943820012696
H              -1.0500995159315514              -0.9624963980506936              -1.8390227728536412
H              4.219096259635853              1.5917482906408014              0.8103897800398173
H              4.565907753704813              2.2871524705283957              0.8548272617527872
H              4.139051390208117              4.58314719487083              3.106908461048977
H              3.7291118731448227              4.208022460944151              2.591785220799723
H              1.5684679942560948              2.309275514643082              2.5574716723054456
H              1.6792635811747303              1.8068012065588424              2.9914992815234283
H              2.0541811306882374              3.7230482310404893              0.21669840443055188
H              1.539740207435094              4.061262109921748              0.6442599732596909
H              1.7459918542111963              0.9463770935673455              -0.43576905185934456
H              1.0991968090157045              1.1765730598392206              -0.32717400488360715
H              -1.6970381867646436              -0.8786268987910762              -2.5817309837755036
H              -1.1741944995626696              -1.1307792430567798              -2.043149606823935
H              4.313607255600039              1.5410600323330286              0.6769701600082383
H              4.4912625547010805              2.2904779437176206              0.7811687044956717
H              3.8182442004441173              4.677917701125379              3.111504686534838
H              3.656627688698057              4.162125090275495              2.6048743787779127
H              1.3676664595556305              2.4166396906486054              2.6731967772951135
H              1.6230976537273247              1.8639561572674483              3.145123243041951
H              2.0742085090852824              3.733356088956254              0.36298744861726384
H              1.3635700208725696              3.9561602174355484              0.5724934951990353
H              1.2950137203596983              1.4560090148514602              -0.6525877246930266
H              1.5375116890967468              0.9803910269039644              -0.0658682220752035
H              -1.728432285580321              -0.7746915663952402              -2.4378396144270402
H              -1.196191002506072              -1.249633824068761              -2.0395313898383387
H              3.6820797119494117              1.7286495367333883              0.8975866122768092
H              4.311497116985182              2.2504142229043542              0.8717717735568925
H              3.854618352498665              4.262596086423872              3.1150753240086204
H              4.080749119717117              4.373491004246105              2.3650178008828
H              1.4143323792143405              2.0246819062044166              2.52413740245854
H              1.823685158879355              2.0357909591765813              3.171299152596541
H              1.84767564815346              3.8614337642556285              0.6049208032004888
H              1.2755699286343003              4.259748059787984              0.9787148836857713
H              1.652167506262565              1.0107901416736138              -0.6205548881464323
H              1.3305400517038977              1.5482903776278378              -0.14488385875292487
H              -1.7200668690355192              -0.5765848179869565              -2.1888849831665667
H              -1.33177845034166              -1.1295839389790185              -1.805005808410907
H              3.7909771847172773              1.8231414121318317              0.8420994263494719
H              3.960045123011473              2.3546204465421448              1.231168762524976
H              4.1222295683079455              4.329686501556141              3.016855244583466
H              3.8883625029233264              4.137648143522604              2.337092087171425
H              1.6070083834660505              2.4140657550042866              2.7413303081711016
H              1.532415316216125              1.5514551166726223              2.7501333086222464
H              1.7858550227580015              3.7578400946055566              0.5674146541829272
H              1.4179888407710743              4.036951924118278              1.170957574660875
