72

H              2.210318603540523              1.739801596993642              0.4315331292735417
H              1.8872862174383167              2.081406499488234              1.0189575073304764
H              0.17247833864850687              -0.37212404378838904              -1.7764599520825164
H              0.10286096090744527              0.22795295650822828              -2.2291601094123745
H              5.250988000287839              2.436767275425382              1.4196839605447136
H              4.763975844958335              2.0636469160656463              1.0716111690578174
H              4.0680009965682595              4.4788064998432535              3.217343686410373
H              4.014102694875011              3.871620325379485              2.655829931128871
H              3.332288884662817              1.2152163068344717              3.324204127490435
H              3.3361003044525277              1.9857109448718793              3.1821152180438763
H              3.041361081773558              4.067305996050758              0.6144504825925484
H              2.706730124210479              4.717695747108927              0.31585552076089873
H              2.1652301064065687              1.742443908741577              0.7070040522936909
H              1.3550494559243635              1.735279169868413              0.8496811043740061
H              0.46037815348151756              -0.1844918395265215              -1.7994131555586552
H              0.32105855176138465              0.3882583772818539              -2.081522741362097
H              5.421816935165726              2.387274670272435              1.3745322470287429
H              4.870318549040592              2.212867315432675              0.9254574717814756
H              4.32013541076357              4.757966133953333              3.038735333326434
H              3.9729311619912893              4.116336935848372              2.71866097547477
H              3.440130975220746              1.0996725799292835              3.1503983447605317
H              3.4236961810930775              1.9269093078136084              3.260134992175719
H              2.9958285484168536              4.187349288835544              0.4382477146249037
H              2.9334623642228017              4.790183112551263              0.864176196628412
H              2.1165770611737305              1.7043516373461183              0.6814586409791639
H              1.4808775839953603              1.9289303810713627              0.7884490489811418
H              0.4052351113633518              -0.4387114465163505              -1.932208731137691
H              0.43159163087201063              0.2834830660183973              -1.9589521038887872
H              5.523743108253309              2.4494917095472215              1.228628470409075
H              4.9075842074882265              2.306176109827041              0.858765332205846
H              4.1790705617690005              4.887547188439515              2.9747164894246385
H              4.0270421409840145              4.176256028602739              2.9362345246744552
H              3.5369167359370604              1.4670051129395363              3.108421850126169
H              3.2987501905330605              2.137360693365578              3.126343993603419
H              3.262306430630182              4.217203243224151              0.33152944904415943
H              3.031416737750363              4.777805715885629              0.7586526697122388
H              2.374870185176885              1.3350186116650509              0.7528140847762836
H              1.7099407996235247              1.6300354210699115              0.726245365600359
H              0.1348645617001081              -0.6802577331418818              -2.1473663342014846
H              0.36186508041477383              0.10769138122349564              -2.2832542080583225
H              5.5218378387476985              2.530168459817586              1.6616570482270512
H              4.957665879721125              2.3141850695500223              1.1565596324806644
H              4.143025189952304              4.879652534875895              2.923292741004331
H              4.092707670065993              4.194328474050602              3.1867259281746882
H              2.8281016951610796              1.7840068568804572              3.045518394218579
H              3.614302144908427              1.9875400790219575              2.9094639142813348
H              3.4404141110103965              4.157445294689548              0.4224219224594006
H              2.803002589705231              4.567353302904279              0.4732956658904762
H              2.4980272278997906              1.5328073197417562              0.6888852430023248
H              1.946996671976148              1.7715448712739041              1.0799887261987366
H              0.25425094675197335              -0.5156670835060073              -1.860845818173038
H              0.24890924021832345              0.042247941850467735              -2.24459250253511
H              5.649692871890197              2.5485738037987815              1.1792309186824368
H              5.163730278789284              2.264946450463256              0.7771625113778573
H              4.199180080349827              4.644814281487782              3.0696415214473483
H              4.336028734082145              4.051089455041526              2.6521892764246546
H              3.1267137031614305              1.850173446759463              3.4658117179227577
H              3.1568852806518133              1.890210489382185              2.765564159240927
H              3.1861804881234694              4.161638117584448              0.4301024579596371
H              2.7128420075521933              4.5333917034989275              0.8781929456121728
H              2.2619852550180855              1.52012148052756              0.8986565394314441
H              1.7035191807997683              2.072991142983581              0.8895839990242009
H              -0.09220466584260181              -0.2605747077380762              -1.5940214782648074
H              0.15634036547021912              0.058100384301517226              -2.187311350101258
H              5.450976858209087              2.1863975612924915              1.2274657319997608
H              5.1911910919514215              2.336329660820352              0.557981968895361
H              4.172038232865066              4.480886375096997              3.233556428223296
H              4.071914580137887              3.863408895582899              2.7680373148032924
H              3.398341104304388              1.5392491282968441              3.284782672692102
H              3.3313800443175077              2.2399723169882275              3.1056471806864248
H              2.8599563970246384              4.163594829167157              0.34191690401362906
H              2.593073718277514              4.723185194829229              0.7829049651492426
