72

H              2.2248003057848678              1.519365257769003              1.1983386830134728
H              1.7272390888186595              1.8449094369929038              0.8230377109115167
H              0.5417451167985795              -1.0970359954614224              -1.9611173177900243
H              -0.20391838255015143              -1.1177810593209085              -1.9028614275734823
H              4.817342168229275              2.3558303532819673              0.7307391228917989
H              5.157390892009189              2.490685052217255              1.380287838620188
H              3.7074045625887306              4.625814390637468              2.6468285266539335
H              4.372753319275678              4.794169562875559              2.8252570491899234
H              2.7577731338229663              2.40822613496059              3.3774240631042907
H              3.2101348488422112              2.093418037932001              3.706151554356685
H              2.684286124002865              4.628138422500577              0.5015992282779637
H              2.697342101175806              3.9643015823281216              0.25119242870071534
H              2.226342515950581              1.398919320212118              0.902719315197032
H              1.5174241153641412              1.6748597399139884              1.066131596737501
H              0.40575994797140724              -1.2594380469730206              -1.893021365071096
H              -0.3551113409328939              -1.2417935258035393              -1.850849750307027
H              4.903312887503857              2.000042850245296              0.7052277125120042
H              5.0339449498409135              2.4948333885937344              1.3094433709994215
H              3.7706471068529774              4.509913646654631              2.6369679799330767
H              4.259282459888677              4.595233090814493              3.270497155768931
H              2.728039310750419              2.3214389220624216              3.620844242273187
H              2.867286790776812              1.6455807170691958              3.8958086774719347
H              2.815211557999809              4.582259164696011              0.14710177660203683
H              2.8972342699891596              3.858188283594904              0.17097304996105062
H              2.108259809659494              1.5730297032509966              1.3025333669835382
H              1.6011038942610358              1.8188048034438375              0.8970156174201361
H              0.2379392992161419              -1.3402126998975894              -1.806026670780192
H              -0.34912930782845375              -1.009858112654251              -1.7397050819215618
H              5.036292050244256              2.0575274737708953              0.971378330442713
H              5.2300288684510665              2.459169701293397              1.5058371152898786
H              4.310676281335264              4.62372211451707              2.5715177093607755
H              4.270806166310462              4.747132941361536              3.2720008081540777
H              2.2442827864368304              2.1474446984939246              3.6924138235338573
H              2.9143166979364383              1.8758975460065477              3.994766864304422
H              2.9248210253256848              4.552950797078307              0.4068611156267057
H              3.0872568222270305              3.8417948103203496              0.4890431198540947
H              2.1451094331185896              1.3536139234363755              1.3136137074913945
H              1.546807203460292              1.6913776256543824              1.0307249646467207
H              0.00347223463644288              -1.095565971221512              -1.683457958374337
H              -0.5767408872963603              -0.9135026687483709              -1.4045560988373673
H              4.705845018741244              2.1599585625583035              0.5755103453426305
H              4.939868218037225              2.5434766242668205              1.1202772034383672
H              4.113640659673521              4.596867606521356              2.6356001335544894
H              4.2851655494347884              5.015556925238399              3.2517161536477244
H              2.27903894785227              2.5324900086699147              3.693223552081407
H              3.0286749927506578              2.3686094121222174              3.6928711785976196
H              2.965715013410229              4.390800311758248              0.275112655067498
H              2.969244488154351              3.9128429414946293              0.7794542087277235
H              2.2645074759478963              1.8565505903839006              1.0209490992399628
H              1.600489277154101              1.54362946098001              0.9421395996881287
H              -0.029362843563275995              -1.1214681528318782              -2.050720020532834
H              -0.7140721284066963              -1.023534024593968              -1.6362185211175466
H              4.607480755375325              2.0666681295084977              0.7885761145512038
H              5.068895140074402              2.482846337604911              1.1635188993000247
H              3.7320143435099173              5.0241388086585435              2.357885321141578
H              3.9251244163858394              4.8396925991675515              3.088483708920663
H              2.401201946019852              2.3979369562979085              4.029541023953577
H              2.9008131149703233              2.145033203961097              3.5113629294688997
H              2.730799805722456              4.1759306886890615              0.2588201443928933
H              3.1838664730935506              3.895504843713247              0.7971482986392164
H              2.426346283610157              1.4403230099019855              1.0744766958234584
H              1.8459864865822628              1.425127337919089              0.6821503260636151
H              0.3932209042803063              -0.9114129259211743              -2.1843107534410704
H              -0.2622513033848252              -1.2745658844334653              -1.8673259421666806
H              4.9307787978123825              1.890235352431264              1.190343640884978
H              4.948911856889254              2.6907649690438897              1.3111454760609174
H              3.6991682561749606              4.827671487256462              2.360968966963892
H              3.9752892128393653              4.71049949864106              2.998620027690506
H              2.6447567142834303              2.7957521059828245              3.56730805583058
H              2.78688375429518              2.0228970752604676              3.6792826784948556
H              2.567995255004837              4.346160956867735              0.39134708966622944
H              2.981208784034624              3.718367675227923              0.25063789284666377
