72

H              0.6636998279963162              0.9702140598006743              -0.3736608788287876
H              1.2542600422521573              0.9621900044446897              -0.8315855866393344
H              -0.9593820614719679              -2.439054088781455              -2.2358568664218477
H              -1.7395760681537067              -2.661829390287776              -2.242464215760039
H              3.567539591467304              1.1554408332035322              1.4373297929730837
H              4.104222455633589              1.4216689790355799              0.9666763574986451
H              3.6131617093039923              3.8868522463743616              3.148535676918065
H              4.276415720475493              4.091197844267309              2.8083113199712226
H              2.0220706660829264              2.3091508154319667              2.6433444030932733
H              1.342498346629499              2.2252588539845735              2.402614378000008
H              2.7846715132532163              3.5281035178617115              0.002912178766509122
H              2.1668482412729357              3.772626036947923              0.26803857549416643
H              0.8684378417868491              0.8107431909756018              -0.4769441602228131
H              1.5440468984840543              0.9620275960522271              -0.6265777493489493
H              -1.165452724178386              -2.621772135258477              -2.2465388749680604
H              -1.7591829715163805              -2.792980486228609              -2.1022037039229127
H              3.896582795020638              1.0316390530703545              1.4607202434284112
H              4.44133347404058              1.2940296437839198              1.2243960755124932
H              3.69577559654137              3.8008425440988343              3.161383857393298
H              4.415742449282347              4.034680113783899              3.0254244729731217
H              1.6463547348309455              1.9698210244911043              2.2943904458129953
H              1.178816309969462              2.46958129306856              2.4668364135403373
H              2.6514276849776945              4.208526465501297              0.09954429951426984
H              2.1401542546394907              3.8569522057856784              0.5580500520199926
H              1.3388658088216436              0.9397588870466186              -0.8529210130470112
H              1.4148025958411796              1.0163839397606844              -0.09708626063928295
H              -1.1822571114556548              -2.3216617851878407              -2.0629689516212015
H              -1.697069269170429              -2.7441556540743006              -1.9074101386680806
H              3.9587165616141204              0.7473171656711961              1.4036233002037806
H              4.404941913038811              1.3294853219113              1.180304014338768
H              3.921506498147259              3.5604016454097684              3.286033935612912
H              4.344523479853236              4.232087288509018              3.0140977637574133
H              1.2892156777565802              2.078260080395765              2.858399595553007
H              1.2254700087558656              2.432738967995624              2.2412678286787036
H              2.4185779545514876              4.201850764962571              0.25588777062733636
H              1.964616884076337              3.618416191519939              0.1373136622284235
H              1.6259593749571137              0.7328878009036061              -0.7585098610396425
H              1.5259580849329926              0.9873019563767718              -0.05761817414538487
H              -1.174489703588741              -2.3243491398734895              -1.9710465404092834
H              -2.01144419362535              -2.4738491156887403              -1.9682439778091985
H              3.82808836334521              1.178377272228004              1.369643536731147
H              4.421000199183681              1.3675805870952946              0.957850070168733
H              3.8844084634249234              3.88660149697849              3.154821457720039
H              4.5588528928675425              4.146047533765386              2.89845441502285
H              1.6844340329222598              2.0095145217670813              2.7219098162522717
H              1.4156872320371696              2.4059168387364944              2.1773995952472727
H              2.72684959168872              3.9736670054090144              0.26372843676017726
H              2.1407703701700154              3.888814902639035              -0.07616044500040445
H              1.2332661416444644              0.6385224362170038              -0.7618328329350134
H              1.4318486225427671              0.8856866835803155              -0.14803329003289342
H              -1.175446192244199              -2.425328755089291              -2.1284003114835817
H              -1.8817910075228257              -2.4726035673636257              -2.1794026048544204
H              3.9864412404652585              0.9844804442251557              1.289358572129432
H              4.613954061221745              1.4968785974770762              1.251798503776149
H              3.6997153192339693              3.528286864268595              3.1070397591638894
H              3.9944628281671877              4.189832568273071              3.221758664396824
H              1.30362242967434              2.0569503561217806              2.857400488364234
H              1.196853260398255              2.369888751240487              2.179954157707215
H              2.7420178283183887              3.7778189672400972              -0.4080011693646659
H              2.2894822450441765              3.690215370035779              0.12337931540981317
H              0.9520209971514944              0.6305452220118183              -0.4965096078546172
H              1.6948354916039925              0.6832832462663002              -0.45684004678382223
H              -0.8331210625006692              -2.468071991329981              -2.3373462257253226
H              -1.5909330474418875              -2.6815595830381214              -2.21839235995929
H              3.9939622249285605              1.0869916136914106              1.612648175036052
H              4.482293149833687              1.3458501755286523              1.1662469775775939
H              3.6338191667110085              3.607267726114199              2.9438190520062606
H              3.9990591148312298              4.275209016739723              2.9928300431709896
H              1.8256059461955783              2.3313547537455594              2.763144776246974
H              1.4292204605764203              2.3624824078104933              2.072171263652205
H              2.7346842897452004              3.592366640776861              -0.19875377307714562
H              2.2151116556786326              3.734655869090964              0.2540730769158005
