72

H              1.47782202966902              1.6003799101870122              0.1420174686499484
H              1.5084637207607239              1.1135021608621534              0.6509960970506181
H              -1.2814910239823167              -0.04505872137115069              -2.0164184774140113
H              -0.5952233622007062              -0.03111287022845771              -2.1381835250350356
H              4.065190782276825              1.7743643132100373              0.49679052157184833
H              4.284852629422271              2.5293985241238435              0.5380508397752477
H              3.758770641489405              3.9568666417680007              2.5186694719106986
H              4.081441248733654              4.523365632441797              2.9259476661947144
H              1.9339518958768696              1.7871402029823718              2.6942810282028136
H              2.6456549421430555              1.6017481697471954              2.889998315727726
H              2.007751755577627              4.114037315053471              0.30966173957847354
H              2.069981444040785              4.441306287125488              1.0349788620945963
H              1.5855085447880881              1.2833765845617524              0.25728897182634786
H              1.234781344492552              1.1789269035905812              0.896150263855713
H              -1.3399633324533948              -0.027926318794496467              -2.216185419574702
H              -0.5901554298825388              -0.22109264915290158              -2.108998486863722
H              4.415498221128218              1.7281552308627777              0.5634738119576477
H              4.7157695582423935              2.416200667612984              0.6931719976953117
H              3.6779851282389884              3.89834801818006              3.0509624573855025
H              3.8789174030951643              4.61370595533082              2.8496237000421067
H              2.276773551812911              2.1352276404497785              2.3262386834642435
H              2.3664649532670756              1.669947680522256              2.8561726849080595
H              2.3421177679142406              4.000911688622964              0.19000430751021777
H              2.1258428151273856              4.301100123940293              0.8152652642664635
H              1.547839353556014              1.8314172711635217              0.15194365880734043
H              1.3201835591656768              1.2185555297472839              0.4448662604170402
H              -1.175138888236364              -0.35682018858780096              -2.3704098212876534
H              -0.5098494415788477              -0.13161845496925187              -2.1303835202517583
H              4.455977613030705              1.715078901045997              0.6949448751813854
H              4.848979574208413              2.3073485331854484              0.3181329382478839
H              3.48837805235311              3.9400424315797773              2.98765254802665
H              3.924360484922376              4.62410084637784              2.9284131027596754
H              2.1801657173790483              1.8313371655022168              2.4640474068315057
H              2.145751967632767              1.9972313083592712              3.2419507285006226
H              2.4299219207717546              3.9452688754450214              0.1582669872788856
H              1.896174842737179              3.883504168177714              0.7090905157406825
H              1.6450299035828542              1.8295162350335685              0.2061021875932854
H              1.1926391095382203              1.1907724152548587              0.3357551928389014
H              -1.2675486526601054              -0.3140921924719621              -2.3203940576948185
H              -0.6778037833586715              -0.37924740619296854              -2.0181746553043816
H              4.147640304980996              1.6825640347524946              0.766739617530262
H              4.568312785792782              2.350832559825625              0.5549270058610951
H              3.5441061221507812              4.161858885707721              2.9641528416414955
H              4.057883475586089              4.637479877270574              2.729506371618902
H              2.2182799228645558              1.711278731310595              2.6976028132964927
H              2.3842794750461382              1.9950223556406077              3.4051446427791214
H              2.437670216095253              4.091309711575732              0.5160194180132449
H              1.7230834270521058              4.077204445933466              0.7792608629610843
H              1.4427464786258528              1.8290246751219124              -0.050894678190315436
H              1.21436986117533              1.3313368737294722              0.34454275719921784
H              -1.6535585817284724              -0.36994180245820485              -2.303776098244721
H              -0.8493697926528594              -0.49454974578763833              -2.2514523229632286
H              4.463174362465383              1.7142051761832502              0.7074112095718625
H              4.504440657934305              2.4451871524848943              0.8434662403402888
H              3.374187807246584              4.364917295349725              2.9175397302685386
H              3.943807497945484              4.472701092318707              2.4700394639490115
H              1.9035625372465286              1.589573671275435              2.732102538957263
H              2.2997155784993315              2.0799898343282166              3.171591003845523
H              2.399231798616207              4.178511408142291              0.6189814489399176
H              1.7248938283910706              4.087344244155963              0.8551220162057431
H              1.4210692137008964              1.7965533437432588              0.0065651328424231265
H              1.4473195166971018              1.0724366235784346              0.2554014479019496
H              -1.6115865255206592              -0.15432229172140655              -2.2453042654087376
H              -0.8531540001216775              -0.32422598144122994              -2.557562078841119
H              4.2064461843262695              1.7643160240745952              0.7766403841562584
H              4.419295928353168              2.45740462996022              0.7178143391360507
H              3.491685365978351              4.085974972136825              2.575612444823359
H              4.014586154760477              4.613195201890462              2.8114643432222186
H              2.035142470947385              1.5588326560430175              2.570717190397104
H              2.3556417731692134              1.9326107879039056              3.0243865059017816
H              2.0913236275233382              4.000511094047573              0.46167174655679627
H              1.7871567012155487              4.329886434632304              1.048220825596838
