72

H              0.6570973130627185              0.957535640053684              -0.36397319406091977
H              1.2638806033016836              0.9764736964207408              -0.8030044086027154
H              -0.9738187234086096              -2.4522188611878017              -2.2141986016271837
H              -1.7143358509379463              -2.666117668677858              -2.233603439604554
H              3.5409346176489533              1.1521667099351887              1.4467389661640453
H              4.104592442416977              1.4188335658950595              0.9842936282411804
H              3.6273655013840207              3.8812209120304857              3.1470701463772683
H              4.276428890892872              4.07483416694748              2.8117174217388343
H              2.033970974257717              2.316153972662159              2.6199664616895983
H              1.2994719125584175              2.2018511373646286              2.4304399606388656
H              2.77626482887886              3.516409185046498              0.0231802310233564
H              2.1603438414476237              3.769889772012556              0.2629423038567942
H              0.8405789393702138              0.829102554904385              -0.46437132039492524
H              1.5385645264403747              0.937239555398129              -0.613663142285545
H              -1.1734986039630175              -2.615895777370024              -2.2512298523232834
H              -1.798993869828984              -2.8318904768909556              -2.1174058994018474
H              3.903481523618748              1.0240196511110113              1.4687170622483525
H              4.459225699492497              1.2919693732613518              1.2451461055681667
H              3.6782664890993524              3.819730137303202              3.1670362961566725
H              4.418092866880901              4.048779216760217              3.0255624988888234
H              1.645627136433977              1.9402428482487208              2.2995925539860393
H              1.1696296583782144              2.4880027869573              2.463963735452187
H              2.651273521859993              4.193204377365242              0.09325402422947102
H              2.1263461539319257              3.8473146667032556              0.5438077850232629
H              1.3573689649730254              0.9109350167399182              -0.8617240965789839
H              1.3994400295350289              1.0254556671029598              -0.11463556373371672
H              -1.1854772232902686              -2.318839342642077              -2.099088517342647
H              -1.7094757227947615              -2.754927151197705              -1.9171702858013007
H              3.9716180887653314              0.7507268361149229              1.3944331745374348
H              4.418177866452781              1.3293895397073756              1.1555812953242866
H              3.9083979680853798              3.5786567013482973              3.283915259760329
H              4.319526372020939              4.231338925165049              3.018657930793313
H              1.311347798245356              2.081127224909174              2.8480069718611616
H              1.2124783185328496              2.462922564911118              2.236251736310133
H              2.4067332574074154              4.218893703766741              0.23584420794104266
H              1.9664568825369682              3.6232678249818333              0.13919268267554677
H              1.6565457450495658              0.7419151974484504              -0.7496192694133749
H              1.5228089103669618              0.9806482087720962              -0.06757015202348059
H              -1.1715584322438588              -2.3153945293202813              -1.9613675452530839
H              -1.9734491143948454              -2.4700156035426497              -1.9774297381072052
H              3.837350570255516              1.190109664227689              1.3772673183889492
H              4.41089438697841              1.3657515930978108              0.9508534408214577
H              3.9065491072711054              3.8683651374436794              3.1616489409255286
H              4.570033935483085              4.149780455793571              2.900374060178774
H              1.6747112472586003              2.0408167034365428              2.730066335463605
H              1.4148111382489665              2.394494323974853              2.1899725827404843
H              2.734569640176263              3.9574820223401197              0.268083690578319
H              2.1449164626550385              3.891218570698559              -0.0733475915067626
H              1.2291211802811028              0.6436934820347884              -0.7528114519448413
H              1.430028007140961              0.8735191632154764              -0.15407754918053276
H              -1.1543073172795593              -2.4389492630230127              -2.1097391720098537
H              -1.8725863405101861              -2.4596493088319913              -2.1777753634931942
H              4.018010109264519              0.986266585417265              1.2959970851762013
H              4.611885100396933              1.5280054300737076              1.260787977225035
H              3.706879334848837              3.5155806380934145              3.1351842267065066
H              4.013938231734916              4.190304220340825              3.1887740547937815
H              1.2820772113008456              2.0599660381330573              2.854970788022624
H              1.1990395911440723              2.362182983490026              2.1764885746758225
H              2.771270280517329              3.786818801667304              -0.41202628512428985
H              2.305185680832937              3.673424462046065              0.1341986858844581
H              0.9651604947083186              0.6194858942752526              -0.5045927962090764
H              1.685865576043511              0.7087104107866622              -0.4574375794434906
H              -0.8321775266119867              -2.482855827007136              -2.338695386521866
H              -1.5844102294701299              -2.6767060710710786              -2.218076832722218
H              3.977710049234509              1.1175468231127625              1.609772164750515
H              4.470948351032395              1.322611461495289              1.1620855398731182
H              3.6401733108369667              3.594015906394647              2.950464656848391
H              3.9935209238483824              4.2540253299767              2.9965756919067212
H              1.8203830275186637              2.325896506749784              2.72711797207988
H              1.4462900559066179              2.3697434231179657              2.0741311263478464
H              2.7411662657427955              3.5879787515907497              -0.20062193394191458
H              2.2306287459590344              3.72586007107556              0.2698979707309554
