72

H              2.421800643003044              1.4193613658068074              1.080395354379036
H              1.7969336510282004              1.7527418262955576              0.9956949448871997
H              0.5226038974653994              -0.7756586100306904              -1.6694374168513173
H              0.284975739966921              -0.14031002499330145              -1.7781261604370766
H              4.752839430162121              2.44508537267599              1.066805044992799
H              4.844240239170356              1.7454328992376265              1.409881326638022
H              3.8167436822541054              4.521973208828054              3.181247725486803
H              4.470509675010046              4.661048815909924              2.971882516402959
H              3.541750526960313              1.665226669172505              3.0526309812080337
H              3.064961961419362              1.8301458387365344              3.5402802393806363
H              2.5719136750058067              3.9217575370771707              0.38590520862625216
H              2.869434812529454              4.5515709749370235              0.19405766711435812
H              2.4235176299787273              1.5621754413664866              1.1044371733118248
H              1.84028700953898              1.7928753517475902              0.731773381600105
H              0.9561325517244632              -0.762933738146972              -1.9565728885913456
H              0.45325812319759357              -0.168634442781645              -1.6754546425489705
H              4.853693047798675              2.4274393333763578              0.9423624954796591
H              4.879458435322723              1.6979657387804352              1.295958788041888
H              3.717474842965364              4.797203143809857              3.1022942544377017
H              4.34486054280514              4.779679752752033              2.860320828775147
H              3.3928688646926677              1.4829744894800438              2.9753385298088557
H              3.0167978344612285              1.7209979750004232              3.673306063356862
H              2.6787916691862654              4.143828735291246              0.6649628936494456
H              2.921143955225577              4.55519369468654              0.09835170409217121
H              2.27066295860533              1.7346693059479477              0.9487651555230333
H              1.6400557263016977              1.5677718147158066              0.6142650806389754
H              1.1246735011821725              -0.8198649084278568              -1.9128307788042218
H              0.668825346377573              -0.25176595528475465              -1.729580082384254
H              5.221376506384386              2.4269006520563394              1.2640440988200112
H              4.9123423525761085              1.8126365286619652              1.3818270955111762
H              3.882892405616905              5.125760745601059              3.194295142127636
H              4.370051570423804              4.613422278378056              2.831403200229913
H              3.3940871235851806              1.4930713531445734              3.270805508172148
H              3.0087706406766905              2.104778218243721              3.529680640390593
H              2.897377474126498              4.016637718952021              0.5605330476491782
H              2.843709733727655              4.679647816940983              0.19139392975326833
H              2.555567860624946              1.5587988432043383              0.8711082146348168
H              1.807948564415539              1.7471738683145634              0.6024540492011402
H              0.9294101104577405              -0.9632139456677531              -2.096323955257152
H              0.6210177075209267              -0.4152610747731304              -1.8830142217581014
H              5.049591212742889              2.617422393634729              1.0312003367352822
H              4.923173075714647              2.2289808034801664              1.6477198446858088
H              3.8780141118877003              4.908962214853177              2.867330815625125
H              4.55333432506828              4.655771222586724              3.0286692602687713
H              3.4780484457286707              1.4131108939757657              3.4943840028076174
H              2.934548458684329              2.001935359075473              3.398498077173361
H              3.2195044203287706              3.798000344080175              0.3892870905893646
H              2.7756290593666346              4.410752202756135              0.3327982559635177
H              2.4678934864133746              1.3822713260160608              1.0409162525299351
H              1.9027176242169945              1.585693214651396              0.6416994897720087
H              0.7999260827686221              -1.0827657446933316              -1.9142879598064637
H              0.6349827500876776              -0.2583269436301198              -1.9717343222241366
H              5.011082361846086              2.727077282148924              1.3202329654714395
H              4.9563719585469554              1.9971093620552076              1.060013187952376
H              3.901439518998331              4.644535052084583              3.1746123243885576
H              4.5282632845013735              4.432298241476076              2.916133112147147
H              2.9394795074270137              1.1659767534746888              3.466892505387366
H              3.165788823245654              1.9352825549487123              3.6751703775491276
H              3.0815709186013516              3.7881512816063103              0.7702712240543479
H              2.565999644819661              4.191395643024571              0.3349623740979544
H              2.4640051033332826              1.4022055642747664              1.0404070913786279
H              1.9610129761017627              1.9926373484187994              1.0444971530789553
H              0.8302069780866949              -1.0113395758859152              -1.5131795104275112
H              0.514813501056092              -0.30574779935713914              -1.7966601181651694
H              4.848336248987006              2.5920974146540523              1.1215263081415179
H              5.00710778116328              1.8215090563677456              1.1789031878771545
H              4.102434306197945              4.213020377196075              3.285099545933841
H              4.517289966049213              4.536064857104546              2.800257383881025
H              3.359535959382216              1.4976519877774863              3.584636585653375
H              2.821746389824441              2.120399813130183              3.544736778376712
H              2.742837714100436              4.046735472882352              0.8668316642942685
H              2.7860936913765224              4.259577549400793              0.15466681394946227
