72

H              2.4124074789426038              1.6418580837548866              1.1373222585864007
H              1.7374724883521773              1.59346011946125              0.8510757402079461
H              0.7023387861687171              -0.6277010426744521              -1.6765043760881126
H              0.5316733721197053              0.01570297973708619              -1.7612219166297391
H              5.00330643726294              2.4903806796979184              1.033886696266072
H              4.7904303291704045              1.7998807000626418              1.0214717555329753
H              3.914245441886759              4.393092434624832              3.2333515949128904
H              4.416504480623772              4.586455595161553              2.709490679783895
H              3.693496718679697              1.5966579400482148              3.1897571335899815
H              3.1197392973006575              1.8872106451379604              3.4175383693784007
H              2.4364369749459622              3.9561642957516883              0.3915240894027106
H              2.7581733852798287              4.577087597876766              0.3893739556756216
H              2.1224023173148487              1.5836457828208639              0.9808605472393794
H              1.6687757847800242              2.045894439292425              0.6684296047703137
H              0.7649021142303201              -0.8112419919635212              -1.8411183635921577
H              0.7362086207673997              -0.00072310418086994              -1.783399935450085
H              4.872475396628356              2.4682913977955243              1.1429574820708424
H              4.871696568587202              1.6658967557975783              1.2161979658004864
H              3.7522013668670375              4.835903517732848              3.1807646392904347
H              4.334913393047129              4.507279349804143              2.8569143924510954
H              3.624633106152539              1.1420163553303793              3.421730677283293
H              3.081159502113089              1.6312757288574773              3.553745104468899
H              2.8056137918476702              4.077864616803496              0.6076679081783399
H              2.937239745209856              4.609804272846396              0.13041549383005016
H              2.3212165761654293              1.4108495267374321              0.8885246815770691
H              1.5642314513718958              1.5374717598422114              0.8195391897714377
H              1.1458185120946005              -0.7931784152353047              -1.8726077413271534
H              0.7200034669858036              -0.1978993784380508              -1.7429985641817494
H              5.216133445030581              2.423911813682874              1.349969042553312
H              4.843204836227376              1.9288939437199073              1.6812743640199495
H              4.046743446678602              5.11283618641226              3.225131747038712
H              4.423053591592661              4.493717113281549              2.9176796417168642
H              3.35492579478023              1.302827218152097              3.433501372079488
H              2.953942779120998              1.9087536467032902              3.367420258529313
H              3.1872558863093876              3.9724799524587153              0.47513943359810046
H              2.955513234217629              4.629281451099989              0.2266909116708212
H              2.263651116930885              1.6156916900719673              1.200162759678996
H              1.7747957782451418              1.663426525664632              0.633627852078403
H              0.9054911684983348              -0.9242771313810785              -1.8299130445099328
H              0.4695537353445998              -0.34268964382713935              -1.802545233799507
H              5.3165464653186145              2.7271622568177234              1.0486290895222234
H              5.157997594682978              2.0612989693332544              1.372036748650406
H              3.933605231576433              4.947444374800972              3.0144621960106406
H              4.683327733443179              4.7055302184825845              2.897813318770101
H              3.4098306018935745              1.5418440347328233              3.2234681258158466
H              2.9440129308448935              2.0461150092546943              3.4792381592128416
H              3.2454701369228998              3.9254844526472406              0.5380524331755704
H              2.8829432766635565              4.6053562846614415              0.5464368475434519
H              2.529161743710861              1.229572210269128              0.8197039483670657
H              1.9943946692156083              1.7767300030915434              0.7142683024034769
H              0.6519961382584024              -1.0674624131866577              -1.9708166338076778
H              0.3166918638955923              -0.3757570409480263              -1.9493481960314114
H              4.957900776543565              2.655165885808235              1.1930592387182168
H              5.0219982586505285              1.901577069690557              1.162424398042964
H              3.726920820534537              4.685947332300325              3.1712551777872284
H              4.409728387921765              4.477275289912561              3.027697375233004
H              3.047715222078857              1.308856537290883              3.428772174775745
H              3.002315430750106              2.100875183314542              3.491531890886326
H              3.0467175774142894              3.907116482089719              0.6920714054123193
H              2.5515427235966297              4.167336953032066              0.164769453285738
H              2.6572429525278136              1.448842095450524              0.9471281457879202
H              2.0152166891580814              1.8238064239894212              0.9609242013735266
H              0.8164545317230063              -0.9787813891001856              -1.8521156908002299
H              0.4117522242439664              -0.27038352866398147              -2.012833998346179
H              5.008206576714884              2.6110521816872008              1.2819067581441728
H              5.149788752626641              1.859484120119695              1.4188194973474706
H              3.9509013500441585              4.360738765733409              3.122788312403811
H              4.5489917718041575              4.621980811434037              2.6928967779380613
H              3.0896172711529375              1.3075899038665313              3.2549624309953797
H              3.0644480305924224              1.9799848241086584              3.6235165626733505
H              2.6461809855144267              4.070328107068184              0.8724536498594823
H              2.661691546096833              4.303394549124794              0.16723925874812134
