72

H              2.2469289502564647              1.2467784208607766              0.9798242923421958
H              2.048488866558405              2.007159489801126              0.9647173115034192
H              0.8015236374025986              -1.0996024242872477              -1.7282191688255988
H              0.25815825114352303              -0.5132416059242302              -1.7473193979371977
H              4.684222601233653              2.353607486165048              1.1365197147841954
H              5.08942172075035              1.8778332977568588              1.4808535473518076
H              3.7613692731162542              4.717337351487503              3.1748163605516466
H              4.537716073301422              4.728303936450216              3.0751925633779766
H              2.986854598366692              1.5880502098966958              3.202050874688113
H              2.8422593883407767              1.9136609096800636              3.9242205004422983
H              3.028624206064874              4.130942799733831              0.808283202036414
H              2.9844404578047414              4.25211293187145              0.04773235177436033
H              2.7327606123380153              1.5261797598702755              0.9774024176272051
H              1.9842500812563686              1.4407766970265643              0.9047342439819525
H              0.8834580686247859              -0.742615591398684              -1.8210188121865263
H              0.17201162057862246              -0.6494242726549375              -1.7229737034301347
H              4.9059061765889505              2.405835115565551              0.8803793109661823
H              4.927146469696304              1.9890808328283807              1.5512498156912393
H              3.778240644110086              4.618315662718372              3.040432413722948
H              4.492870624118745              4.9766530226333              2.9563986686827906
H              3.16252802122608              2.147308156248351              2.972170763732621
H              2.8930013800843035              2.224966926793365              3.589154360871368
H              2.6003695432401415              3.9333565837127535              0.6057091127697085
H              2.8914866663970815              4.4450402555117225              0.09981934183529483
H              2.5080979335973463              1.8153403076071033              1.0928015385092706
H              2.1045848548607706              1.7180823751498104              0.4751058859936418
H              0.7144495592957831              -0.9382199846144268              -2.1175755842672395
H              0.3707140810731048              -0.3579377461907358              -1.8512582050219777
H              4.781741521460062              2.615524513655475              0.9116855323906378
H              4.926853798772931              1.8848049246909349              1.0969941499449414
H              3.603003787988408              4.741382772588035              2.8419250012318416
H              4.3062398685110415              4.8291637989445295              2.911720408209964
H              3.2781981875735173              1.780850573918775              3.0358760615787546
H              3.1866327730182986              1.9568123999293572              3.726097626468624
H              2.54334051191426              3.8741659099875565              0.6464398786930166
H              2.6539483853695973              4.444600887145611              0.2017042288663433
H              2.6492864869762625              1.5407004972130662              0.6582366343733277
H              1.9404141357221196              1.6956013840078368              0.7293460544332444
H              1.058801076824179              -1.0420229782312485              -2.186635627770234
H              0.8271370005634654              -0.23116460427498411              -1.8129325637344471
H              4.747197154263688              2.545779176148044              1.0750176451019136
H              4.638195732711086              1.8216188942285014              1.4781419051767144
H              3.6964363753778504              4.732726733178691              3.007347137615264
H              4.32592438028408              4.37025491880464              2.9376958920719987
H              3.2038239665862243              1.3036861312960182              3.5682471882819122
H              3.0744640627972992              2.0032484054721444              3.599383825035396
H              2.8172722997070916              3.8335053684093667              0.574447406846711
H              2.5473596382880848              4.2181828902476814              0.00654146794318891
H              2.3000303572363525              1.8586578842000765              1.164140464483072
H              1.7236659134002075              1.5886230029823292              0.7901919783369881
H              1.014389845631284              -0.9070132873438098              -1.6898945311280127
H              0.9211502108350773              -0.23025713225397987              -1.771484043523905
H              4.970624682652344              2.6195954166734228              1.2119288073040915
H              4.798086938111302              1.9593218488064221              1.3940536883503716
H              4.071790767086993              4.589040774488887              3.1637165036058397
H              4.738857459305134              4.539212791607195              2.7851938203315783
H              3.4449122753587598              1.4128690401923272              3.489744362725939
H              3.095278943847636              1.973232426148785              3.6851918721014894
H              2.9269338456679623              3.8487322433075835              0.6014314958829985
H              2.8559506979043694              4.498930307088238              0.3223549289350098
H              2.211720363269716              1.345799941679632              1.1763829580719956
H              1.7628551592684358              1.796790389184083              0.8219336286304825
H              0.7216951830067089              -0.9518273255545475              -1.5708797853133938
H              0.5463032653196133              -0.27443805782339775              -1.591946297797533
H              4.6450888671701165              2.591461900930233              0.9139920650500514
H              4.690806378122574              1.8289407849066337              1.1257676021589786
H              3.8914232858595605              4.4914259824423866              3.3717376612264816
H              4.569847028337745              4.602331950718562              3.0577748002848457
H              3.5515311087492623              1.733692096425953              3.567524435830893
H              2.837528480508619              1.8063289199916925              3.566579371895278
H              3.0494681605101532              3.8305548188145053              0.5903539081075654
H              2.954570502683657              4.3899877155145175              0.11245201519972901
