72

H              2.5148609826252164              1.665263844165295              0.6131594035023811
H              1.9465386610289361              1.2460796114418549              0.8398842674241571
H              0.7988779454767762              -1.1219195513177727              -2.247179312003543
H              0.46815120043529634              -0.5209351571908523              -1.847182418952172
H              4.59530811232071              2.3425437434921106              0.9538420953799142
H              4.712999708231528              1.991420536704351              1.5927868156342984
H              3.503629901316501              4.6417475446619              2.7156678179142637
H              4.169441302849995              4.398492149923066              2.980645515620879
H              3.190738577937579              1.828238309390065              3.3862995545730894
H              2.9658986244798218              2.109815240900724              4.0915846995544864
H              2.733885329086817              3.7734514514733237              0.5066499280369152
H              2.7479763520080946              4.302601818364327              -0.03240903250738258
H              2.30877556772183              1.4959272453493786              1.2587980076936174
H              1.834716668090739              1.5581643162743772              0.7109706149780708
H              0.9816765327046371              -1.1228361280492503              -1.878245472704289
H              0.7400603473637374              -0.4544009097714418              -1.6543707106081489
H              4.789596753393006              2.538152618728025              0.8593480457509077
H              4.829414154611361              1.9834681055631036              1.369133807206432
H              3.833774063047144              4.320979803410781              2.941674113526027
H              4.577289067979998              4.627862068429586              2.9187124740278954
H              3.1740269918024127              1.760953396525202              3.4727507901899815
H              2.946571003565074              2.1011531648807455              3.9917255507675735
H              2.907937151730872              4.251944058520536              0.8035283279465693
H              2.854920639143594              4.190333855547378              0.056128973722144544
H              2.10445463950072              1.3390315353830036              1.1149968643678845
H              1.518998021183279              1.748974965114084              0.8791110040981571
H              0.6676388952923096              -1.1369118050578535              -1.5418211293855602
H              0.3175429722979324              -0.5019224309161723              -1.4868734026158792
H              4.604937848509969              2.470718086155485              0.8113513467119075
H              4.864861447327261              1.8392634071004834              1.088372123853078
H              3.8376264764308825              4.37071476189049              3.247520707843456
H              4.460625483871813              4.630492435329359              3.0375112704496043
H              3.2873938977743746              2.1744686061655356              3.611472989325918
H              2.726008024043669              2.0741886229164797              4.005673683089033
H              2.8688246151426537              4.26451486137956              0.7248655753578801
H              3.182211648855063              4.113529035114578              0.0827173629403
H              2.338490235498732              1.2488423454633761              1.0598691205946504
H              1.9109885971434735              1.7946544590151619              0.7783227566161887
H              0.6392517991396339              -1.1931410849175783              -1.8332012763263732
H              -0.13927124360813556              -0.7425181879967557              -1.6076291092363948
H              4.496698446889728              2.150916893383372              0.836440169179578
H              4.887339041664598              2.2469839674338905              1.5499090971980227
H              3.83281239566204              4.507435188318181              2.7683942818684
H              4.243394913111286              4.8371995866893025              3.2550585635040603
H              2.945657683623225              2.402329654884989              3.5824956371801826
H              2.6750906647907766              1.8239723154318284              3.9987888696459035
H              2.843394116101817              4.1333492655587625              0.6198519190874107
H              3.3721365544599746              4.074527041732762              0.07804162800655726
H              2.5115470367897625              1.3515124695462346              1.143516758821222
H              1.935992535659201              1.35894514740794              0.7207543737778869
H              0.6760953769391632              -0.9074391022317159              -1.9194427208823408
H              0.04992684874263166              -0.730650907615612              -1.7113863718369091
H              4.7159696039063075              2.371380632469321              0.7609468313082596
H              4.970004041026475              2.054871489067116              1.351654906207225
H              3.682614337205193              4.556605353083643              2.749415985291672
H              4.236930197478526              4.967979849692325              3.0647567650510297
H              2.7290624300712545              2.4426133414088995              3.208758904421848
H              2.934802954840336              2.3229508589714065              3.8372320899460144
H              2.547236114580727              4.066643607345958              0.7371336294832477
H              3.010368997596294              4.104324157272431              0.2219209055178241
H              2.617114714519601              1.8206640580189635              0.9759721066105098
H              2.004931516346008              1.6098167918078288              0.6577041581645643
H              0.715050776735172              -1.0042658383912786              -2.0764587763122244
H              0.19877966328466548              -0.727012028486278              -1.6887193817923833
H              4.525859921057441              2.431069883753219              0.6489838608994608
H              4.90585451056404              2.0132854298580254              1.0840182634893396
H              3.474009988218892              4.479891104046396              2.7060276202559255
H              4.168667591296661              4.767831349102339              2.8798957960632974
H              3.0318551459719822              2.49196816335329              3.2981792128270224
H              3.030474075649738              2.2485167461105378              3.971153373047123
H              2.52242258705695              4.095479332170264              0.7598779671542989
H              2.8249959003815865              4.1576441686862395              0.13859583387216648
