72

H              2.324439018332603              1.273206036653665              0.5318464604097416
H              1.8911900306126002              1.7947811590295806              0.8366482602585898
H              -1.2542482156433605              -1.3207735422091118              -1.586437696422035
H              -1.2848775898329627              -1.7004146362385688              -2.282345859413929
H              5.107421531625354              2.5626625169777864              1.3578894926823042
H              4.94306593795351              2.4043951823972267              0.6100963968892621
H              4.776083332053437              4.556870275079225              2.9567914202745484
H              4.511476949291021              3.8552915366468894              2.8983105246854977
H              3.2819854124745107              1.9559559676847984              3.5752441272560875
H              2.725269586069892              2.3850848597205294              3.353010497826135
H              3.2418871137380982              4.75070716592151              0.6392698208423601
H              2.684070100451055              4.570319126337874              0.18202972360806563
H              2.4002829686175753              1.3404710855010848              0.7396342843287438
H              1.7586478801930292              1.692878470309714              0.6519500614512218
H              -1.6950915941780824              -1.3199117386196797              -1.8232689248725447
H              -1.41424688691494              -1.6636989905738893              -2.472890734086886
H              5.344052280931114              2.415016736533281              1.2901217117638106
H              5.062333878671989              2.5086966861026507              0.5865953232265154
H              4.453109828577957              4.844049489086916              2.8168326724727617
H              4.516173786506386              4.102983764752399              2.9476161336008238
H              2.9437075996521775              1.722715744041871              3.8132519039804937
H              2.7855601433562835              2.502184217975324              3.733250066405254
H              2.895527084355106              4.618320661601838              0.7271856387091266
H              2.689633585418474              4.299047043682389              0.09062772194861379
H              2.6633172550454143              1.4019894883291173              0.7434531356297344
H              1.9071002528891163              1.233299599262332              0.6876293743608691
H              -1.46322692675638              -1.1441920618533614              -2.214025592814279
H              -1.2025427176502481              -1.6978451265745507              -2.5881789435980616
H              5.165573315293544              2.2886883948568655              1.2159250892230797
H              5.215225581059631              2.7218600918580647              0.5372877105815362
H              4.375737618948797              4.882528639296773              2.9600519363320292
H              4.467973241686395              4.176784793627954              2.9360825493236713
H              3.1212747282613025              1.5883317086659432              3.5939332359064684
H              3.04899176591356              2.229787013993864              3.6537220865244167
H              2.9814680528666986              4.287374700743089              0.5887387003534004
H              2.290992023735502              4.16659428711199              0.38151609934896624
H              2.3007224579736576              1.340411571465357              0.7243716604169621
H              1.815566879391895              1.795561913492882              0.9816239693909078
H              -1.077004732411235              -1.170008846654362              -1.9135877080831993
H              -0.9244013023568803              -1.3838397106537876              -2.579047228611712
H              4.76107137308613              2.540041067720931              1.0166831213845902
H              5.16828892073106              2.342219432230211              0.46399393131824945
H              4.202937744896389              4.83281661289307              3.0426877480443038
H              4.671566435067475              4.233603689700153              3.0393682148961583
H              3.2926172898056305              1.613723259218774              3.687325561511684
H              3.347214134461181              2.034241406279655              3.075318735262917
H              3.05582768023557              4.364616181726142              1.0152820979843715
H              2.6183291493338916              4.2537771742319865              0.4176517718378394
H              2.2282842003387815              1.394280028297319              0.8209707540809461
H              1.8255644825969013              2.029458425247152              0.6142269203498987
H              -1.126039578367755              -1.4076852129606519              -1.671429753503697
H              -1.0341679692142203              -1.2893774410343504              -2.435263921612623
H              4.822508068899001              2.077925225679354              1.1477075372504033
H              4.86616103573047              2.245967620904495              0.40137361745412764
H              4.305434953560835              4.5853876635501996              2.814647691441144
H              4.567762947177935              4.155561336374154              3.308011136763239
H              3.604122461443066              1.6091611410904822              3.7385766040889368
H              3.2435922961505086              2.046322691417279              3.268394301585829
H              3.1307099665697984              4.5995416668774824              0.9467544627490733
H              3.091664052698715              4.434512041775846              0.22085491422851827
H              2.238778267266926              1.7837849041357023              0.23792112941892923
H              1.8607822765110587              1.8324634181615245              0.8992723655972658
H              -1.1382741724357481              -1.3694532820211136              -1.7140793130732344
H              -1.385378801446621              -1.3487605983059439              -2.4207457914203028
H              4.940958390783142              2.0054125231033333              1.53754780565037
H              5.148954728905993              2.4328813286138433              0.9024538323106072
H              4.5056820216580284              4.6881006621558665              2.8185259459787297
H              4.620988079190665              3.916755081579848              2.7853292011071753
H              3.5855442706671634              1.644983254719192              3.6256832101316303
H              3.019266473019514              1.8289168551939274              3.219145814925609
H              3.2995109197703623              4.545792339332709              0.8898700746368915
H              2.7897031293856425              4.334447008737802              0.31849723259117
