72

H              1.943118198962443              1.3220140713832715              -0.31969594239020466
H              1.3155400024420911              1.129209779204388              0.08839160546900836
H              -1.5425088002901537              -0.5989684761604935              -2.3989683268785003
H              -1.0599440857170312              -0.7234490882660065              -1.7401021475832157
H              3.9332498066925825              1.6292992755078526              0.6304791883800885
H              4.302022870714449              2.218704538647399              0.7388295716194989
H              3.700242546464807              4.334110604436945              3.1527878799668483
H              3.9072120244546396              4.352430691930706              2.4932555904219256
H              1.9422013893188912              2.0852390886063246              2.725514304416782
H              1.7762152260837234              1.8088811092345503              3.391220300049524
H              2.0259142904993226              3.8218493088678644              0.47482666758145453
H              1.3994213626805676              4.091249590795955              0.645619186270214
H              1.7871861517180745              1.324969216184026              -0.26493839987960255
H              1.0868114788400842              1.247870818860527              -0.04483296173807245
H              -1.8623131327290947              -0.6849768149314625              -2.507985629585398
H              -1.3213495657419303              -0.9437801697806908              -2.143730927289837
H              4.058812632173136              1.7008176029991482              0.9902764322499786
H              4.536848270609439              2.2763823609394893              0.9325100172301531
H              3.525696528982112              4.560319092844018              2.982448915161657
H              3.8693698379142636              4.344159274426545              2.3781133110358934
H              1.6426559656907402              1.887324472540081              2.396942364451599
H              1.852286568955027              1.9958414337500028              3.121128061251548
H              2.0968518435203336              4.048445183215769              0.6776957977611652
H              1.3935926420583347              4.215625282213919              0.8221542423768772
H              1.8048788406539675              1.3130629460178842              -0.6274791055457177
H              1.2671480583598866              1.4174923185844341              -0.09293320579935782
H              -1.7818337851098307              -0.49423264024079094              -2.398281074479026
H              -1.052743466065167              -0.6356647272144087              -2.3746456956357753
H              3.8582682973010782              1.8048876423903573              0.8081551341993505
H              4.2084429371903385              2.3673114988719246              0.9867838493411923
H              3.612886076538635              4.158650536075742              2.92333057495509
H              3.913333107511077              4.578229509552343              2.4878537481010308
H              1.469038510608417              1.9273518274514045              2.4842013254737747
H              2.1101483415056816              2.0305851099373498              2.8231913988503545
H              1.6354417007695852              3.678722251239052              0.42245024376964524
H              1.6018475663111076              3.995337048181086              1.0378280023363773
H              1.6407279798758552              1.428908983450341              -0.4303099240274001
H              1.5306748820421348              1.2025968974893457              0.1945664466008079
H              -1.5648523171731235              -0.27458298307216666              -2.244049641259877
H              -0.8113125744822599              -0.5662932320863863              -2.032587946143696
H              3.964992469894833              1.8096814636928902              0.5686480131376572
H              4.2527978531922255              2.492751020518266              0.7173996070401084
H              3.9183555951560387              4.096317098026037              2.9569842044941668
H              4.22259219036863              4.55322015547369              2.4688691932624858
H              1.950352914494022              2.009939243470043              2.2577900233877255
H              2.0699631299623373              1.823145280369896              2.911941833910054
H              1.7261296689965948              3.7926218548116633              0.4339718961978754
H              1.7715040422275417              4.365009069088906              0.8552986144438035
H              1.870036924388951              1.1478534305077677              -0.31383457803212145
H              1.2791744153171143              1.199725901639794              0.2621018819926728
H              -1.4360507949730523              -0.33993508776215425              -2.286520209990508
H              -0.8942828799803111              -0.6365630771340585              -1.907461763433041
H              4.328870957382375              1.8153948286120651              0.35511138014281135
H              4.469539124522258              2.2587625415470285              0.9259478958935432
H              3.985231773974448              4.077169889272661              3.346225210426006
H              3.7257941686004115              4.212635390481388              2.678493275983543
H              1.937970388529188              2.483793584333177              2.416742574480005
H              1.7758194890538472              1.717364235737958              2.614293785701234
H              2.018162320934139              3.817313088859351              0.06241328378073165
H              1.6904013018216413              3.884095816854166              0.7740960705631454
H              1.6528169313789136              1.476161384639547              -0.3700339688035124
H              1.6333706258340368              1.0006441031972007              0.20744545342618478
H              -1.3499296996959615              -0.6538769621405319              -2.3856530115883077
H              -0.8403969565419738              -0.6472407945237494              -1.9570095264081437
H              4.31247280448228              1.6528131599114928              0.720257955902666
H              4.856123237867371              2.1475867376845916              0.6008219945442006
H              3.728888564510369              4.031567154002664              3.216742273185986
H              4.014959924901898              4.421234478530357              2.667683233070728
H              1.6124249740097925              2.0661450536520114              2.4607647612164847
H              1.97425407086959              1.9252434325073333              3.178994842679597
H              1.935812793859568              3.791627466195876              0.12696717735327867
H              1.6011844592534847              4.0175531566559295              0.7195716015540256
