72

H              1.3972046876677264              0.7573097691090099              -0.5487803353383837
H              1.1855240049245026              0.9166770385756658              0.1010663191654696
H              -1.2198874446308239              -2.500838754370883              -2.0297563219334456
H              -1.9539070022668479              -2.868824222165045              -2.2232982569708306
H              3.993632271372453              1.364444684130624              1.535185223272299
H              4.659748488992237              1.3650080128917426              1.1533401090011914
H              3.8875557478703646              3.6246299945215217              3.365776879018861
H              4.32405970602374              4.092282659538088              2.917356143927399
H              1.4064448477891052              1.9279833702450229              2.5160672271727202
H              1.1738631366752539              2.5256831388868126              2.068494990106735
H              2.839907388512832              3.9935917925250104              0.02774534918966123
H              2.2538523743502608              3.551552641130278              0.19352290060476487
H              1.2728339474649415              0.4396479299540001              -0.4669788583627475
H              1.1216777243318699              1.0572188603715975              0.07463178333439627
H              -1.0679806668678364              -2.3020292473520776              -2.1547078731673714
H              -1.664724210342104              -2.855563859318025              -2.2985244873921533
H              3.8708813801946063              1.359609355985049              1.4453405191532238
H              4.544828807253982              1.4340779740601095              1.0883092623743673
H              3.8131540478727204              3.4134153049356772              3.2481450242348964
H              3.9846664930996245              4.079266684651435              2.9977812675106814
H              1.566409021069762              2.1937707897151353              2.381234422517476
H              0.793228755078528              2.412948232965238              2.4214362826755886
H              2.85826206423282              3.6104720893322515              -0.16412934569061008
H              2.260853979905757              3.6093084422462245              0.22040936010157675
H              0.7723727360746098              0.6257715813599354              -0.3950339862375357
H              1.2573536592237882              0.8195248808292083              0.08147671737148764
H              -0.9809354720754963              -2.5195922073604615              -2.1602435341008737
H              -1.4910722331172086              -2.8943329380060385              -2.503897222590578
H              3.993873674418586              1.3823132542111956              1.7928822614424769
H              4.512661659451929              1.5134242783953518              1.2169881817201622
H              3.7213546996823226              3.6568083283474366              3.253940198104646
H              4.2237779894334375              4.089798401948166              2.775175210128605
H              1.7987518629016497              2.210352803567612              2.3480176239343105
H              1.030063699115341              2.3953039104965215              2.4779863037293617
H              2.946383644740493              3.223854404754916              0.005161690181620012
H              2.39388301902007              3.6255580864939025              0.2281343528397979
H              0.4652243236275326              0.586649719779572              -0.4510228762170636
H              0.9359448168409057              1.0742531912505453              -0.22393716209365988
H              -0.8517017501835455              -2.670887421850792              -2.368989954568237
H              -1.6204532326524166              -2.8185959040947735              -2.454813605288076
H              3.985223260618492              1.3178715719218088              1.558282161385968
H              4.338019156499328              1.5750172849600383              1.0359901157163116
H              3.6945034688548537              3.7724631889732114              3.388659509453826
H              4.036631748154325              3.9421205405880326              2.7263142003324523
H              1.8520189570456511              2.2858218670730817              2.4016948572544066
H              1.1173078531389518              2.4297308923834158              2.230950524044151
H              2.7946850349565557              3.700336083591919              -0.14264854721594558
H              2.5528710268560286              3.488179056349312              0.5152439195945022
H              1.0344634179001009              0.6250864681965325              -0.3125053262209163
H              0.9584767064520655              1.3086837610990047              -0.054816721621582166
H              -0.8267227488281708              -2.6470892975609215              -2.1336776729953955
H              -1.4920226012133528              -2.8539072905250253              -2.2406964805538827
H              3.7523599666279615              1.423166827251198              1.502205570086248
H              4.323497984823726              1.1200190684849676              1.0873542808157142
H              3.9988524341736316              3.616672770706598              3.436758602300801
H              4.428721362901694              3.8132215243115115              2.8311397440288504
H              1.719441575100239              2.2166747511632967              2.298190784747531
H              1.0644173870268985              2.437053078083156              2.3504562734093417
H              2.866643665039353              3.900089069893316              0.3079887638983447
H              2.222098119081154              3.752593965478944              0.5511145267696593
H              1.2022724191291465              0.8799567589269839              -0.46602872019729297
H              1.1536818439531915              1.001523861680731              0.24247541042898824
H              -1.0494973272031973              -2.6061029299244978              -1.6898997522235895
H              -1.5909201576260372              -2.7677218286144996              -2.063965943730844
H              3.962868787231709              1.0167676669858918              1.5581341453340694
H              4.499031028754316              1.5077705889056738              1.312463121415349
H              4.225263471417051              3.697116880942028              3.5590214707147267
H              4.453743622306381              3.7873462847553414              2.777138739403445
H              1.354753601872835              1.989392580300533              2.61217994501526
H              0.7244597542152198              2.415523529843945              2.40209415505449
H              2.7501616119796237              3.9772632975122475              0.3978596006193411
H              2.1791184397568104              3.572001596758527              0.21024775774173385
