72

H              0.735136659698841              0.726442001293706              -0.42551528130683636
H              1.4540990388751474              0.8114698441508764              -0.49938383146207493
H              -1.338863124316043              -1.5644100436239154              -2.528746606445066
H              -1.5025652106394853              -1.9385846276024798              -1.8002567043586584
H              3.895955476601373              1.233560378953662              0.8629533484038725
H              4.081157381880342              1.9323832328972015              0.6483930084601399
H              3.9745348360944743              4.404158839535592              2.35540676984456
H              4.0649256387253105              4.276790981086971              3.004336372507314
H              1.768428416414526              2.176113857000202              3.15775732213823
H              1.5644325450819345              2.0115550745156305              2.3678753579691905
H              2.48362229638881              4.114715675740548              0.21466295026616664
H              1.9549267440662659              4.3342330335940815              0.6310899741855311
H              0.831553393453461              0.7802574298080144              -0.344745535554554
H              1.581651723881751              0.6755803772429735              -0.5559962406931351
H              -1.264393447643063              -1.6327893597157537              -2.3429397634307274
H              -1.6277833792206058              -2.0111797095609827              -1.6569873866129692
H              3.7217383828852753              1.2450447950018955              0.7584177304656585
H              4.024534345441887              1.915159565388413              1.2115927395493808
H              4.09598981085121              3.90403204249624              2.5224899706039663
H              3.8839559213658266              3.950972024184646              3.2250101442712267
H              1.2725804487762982              2.194248209761985              2.8663620318590843
H              1.7930878808403938              2.0492495151173427              2.4040850904719733
H              2.5487548751403772              4.246095110124419              0.30169359670802315
H              2.02482484222881              4.043418349353393              0.838961026689498
H              0.9545867217588201              0.7348031250891626              -0.3815074085408283
H              1.475596798611494              1.2101684886440822              -0.1517831295968446
H              -1.304303662264557              -1.8090792897338732              -2.158387635149811
H              -1.529264897321544              -1.9420965050387373              -1.4464691539145014
H              3.630176888914334              1.2527570079936636              1.1405353170492132
H              4.14658984323575              1.7637039957398049              1.2048653843948063
H              4.019798644565629              4.007881836496045              2.348625656266482
H              4.013313531970435              3.8671206849546875              3.0444146050752825
H              1.300248332245117              2.139445027456237              2.757380041636856
H              1.8716531653828619              1.978774087015647              2.3500164971586983
H              2.411704757808415              4.334954794668566              0.7015882929180705
H              1.846279824173718              3.8737815417434884              0.6554906146798046
H              1.0259602980048808              1.0164159120044727              -0.6056391843193413
H              1.5999448142604231              1.3347686708625988              -0.2720902925226007
H              -1.6217824936432594              -1.7219600876723071              -2.2455301847126896
H              -2.097914147246976              -1.9174201485024824              -1.6087027604759196
H              3.2918441818159905              1.2864235279148097              1.075273579852731
H              3.962387975910125              1.6184225376928336              0.982623954987455
H              3.778155724396344              4.384324046085888              2.431033848200757
H              3.979985286764175              3.900343084894909              2.9533777574001485
H              1.4573630121693064              2.177102174545331              2.6120011402033234
H              2.187654296900909              2.050708928242139              2.4183433360445292
H              2.423867001905658              3.912453204794996              0.602267429224418
H              1.7549322229271413              4.026063192310407              0.4565513903731591
H              0.8640511716875328              1.1613940098587678              -0.6291322421109555
H              1.6171909629756176              0.9440572391564439              -0.621625587989811
H              -1.7097611630772467              -1.9663243164604502              -2.4989571073429593
H              -2.0492282205962096              -1.8883697725158124              -1.907600857408352
H              3.701041916071369              1.1266989563715137              0.9338797426377751
H              4.247463781294542              1.5361193073726755              1.1841164208482524
H              3.6879507285714266              4.5398309224246045              2.52959008893916
H              3.6444972099204236              4.014522554259279              3.012792921338511
H              1.3568274422410604              1.847180191592213              2.633246837284619
H              1.7165497851618947              2.411487891388375              2.278924171259626
H              2.3571763270661945              4.139586633865722              0.23036615995812598
H              1.68066648010083              4.186693338736169              0.5589329407245367
H              0.7186035843647315              0.9148765118270451              -0.5604352584029505
H              1.5200859474606467              0.8463838867309945              -0.5446907320378481
H              -1.473786748498053              -1.6491575919075863              -2.597401543628612
H              -1.636475961462306              -2.0148051828843148              -2.0547354931123833
H              3.8980967087929477              0.9731493729431746              1.032633431933405
H              4.173955249401798              1.6579346372836055              1.0634217868862585
H              3.960094336956014              4.4250637222057545              2.4760397159106873
H              3.5945001402970918              4.39161865488807              3.1286500473045047
H              1.3657195995070122              2.09888179539864              3.0966170327215163
H              1.6201319267309922              2.1285998712834044              2.3691913132902416
H              2.185182562232375              3.8898447491944412              0.0001868063533017642
H              1.7393798197916472              4.0402413009155325              0.56185598877668
