72

H              2.247119881794783              1.3336915791930648              0.820376154024223
H              1.6410225806134036              1.75623399178933              0.7752767088903337
H              0.46163390024075246              -0.8310252383103174              -2.0479306219947087
H              0.41931483348381027              -0.09486195433857905              -2.0987406266939637
H              5.621762716767712              2.6813407648853844              1.416779701793355
H              5.247768986062092              2.112652937118276              1.4505661063228354
H              3.960587927685907              5.080522730462003              2.897592765413414
H              4.443355151761631              4.430584459917493              2.9392942182887385
H              3.0292557159912925              1.3884943254673427              3.221554843349578
H              3.48119530070444              2.0309695387563376              2.974120221417102
H              3.461381686579274              4.050938370433639              0.46023366792400805
H              2.8899494844471287              4.57367813412438              0.5997572643811186
H              2.526982710033552              1.3136562385093757              0.9440986491124232
H              1.8919400519800185              1.6797277879196773              0.6771771670359048
H              0.49238292515610366              -0.7888720717023359              -1.9651428525479604
H              0.3652329462220203              -0.13825704967389155              -2.101360864252174
H              5.459855650320432              2.6325653092441605              1.304585851991122
H              5.2147795841134625              2.0521068856475857              0.9273433296368148
H              3.9378783510227464              4.69196758792932              3.163028268889346
H              4.374590624171194              4.238387046332084              2.7201794428437656
H              2.9806854422824456              1.2763604152122636              3.3769465041642888
H              3.177947756376102              2.017288751035658              3.171098375498542
H              3.173706635108554              3.9617728022410184              0.6546170027752335
H              2.611754217695605              4.406632571091516              0.5828015247322738
H              2.2579135103013894              1.478517880674905              1.0567695093359808
H              1.7511287438759775              1.9358785301360182              0.8641596276495287
H              0.42017940849779345              -0.6286545006365533              -1.562669228696311
H              0.3885936496561712              -0.11368343190938114              -2.133957213872323
H              5.507035520279805              2.470376343556874              1.4329279196854885
H              5.314615684918677              1.9479084981247083              0.9269505541791632
H              4.12257717124825              4.372416819992797              3.2472897928893105
H              4.306435384708751              4.250224750594606              2.557191194477864
H              3.3242811518425794              1.3223335872197735              3.4772782289783075
H              3.183612535357127              2.0136425238410043              3.2263425869879048
H              2.809491769387425              4.136348696028713              0.8445394347887205
H              2.6092710633926215              4.702676336939655              0.4299821454892715
H              2.190235687721315              1.5637907771603792              0.5595200582943355
H              1.8464470042156444              1.8521810760257846              1.100358026246807
H              0.4482648133632425              -0.5732523932555088              -1.715216902677755
H              0.275451651800819              0.1812911627688566              -2.0401002999218627
H              5.268129088157599              2.511211494259347              1.1731767819508978
H              4.8975249707814825              1.8744358751417274              1.287638748255684
H              3.825889068815147              4.516233872423967              3.1616398224342213
H              4.324178201176663              4.192160339101534              2.691254634596246
H              3.7054586485555725              1.323477893729325              3.328897304148639
H              3.098872309500138              1.779247222931218              3.216162514921231
H              2.819299511092844              3.961298713190323              0.5623630182115245
H              2.791599418229453              4.677770458132648              0.2601464533748028
H              2.0105497154786685              1.6559746458814735              0.9933224349481415
H              1.4840368392768573              1.800308994500508              0.5323137492470317
H              0.6772440365507254              -0.4772036477664907              -1.8669094371734927
H              0.5614211784999701              0.17298350023689033              -1.95304426118171
H              5.397830788828137              2.4576966637436017              1.358378247848705
H              5.080388804685711              1.8999129883004475              1.0672331807568674
H              4.02839130020361              4.897513739004957              3.121687145958212
H              4.088970185905492              4.307649375559206              2.6734802725019517
H              3.430784484085657              0.9795264363760919              3.1500333578766297
H              3.3157553299364544              1.4545961092100408              3.635189183832881
H              2.858778128115041              4.074979636296825              0.6548955592925177
H              3.0142268544358894              4.826290537269125              0.5832450695980722
H              2.1429834993354477              1.4336023049549413              0.8419538575359705
H              1.4197072515722309              1.6902542592071674              0.7659557449958562
H              0.9387333788238855              -0.6246173955291948              -1.8261191033547965
H              0.6403635508553309              0.05148867984737267              -1.789242982080514
H              5.561351902665585              2.4041586312661622              1.3697967094248338
H              4.981993031015991              2.0930264175783235              1.2638523316949413
H              4.190622892277201              4.934174652840458              3.2348683127531075
H              4.109420164031189              4.37804887386427              2.7038338893314133
H              3.4118499224792376              1.31545472028956              3.4484175318351133
H              3.194091703903088              1.966940143668751              3.1155469763356702
H              3.2631348104002975              4.0800143998591105              0.487725567244326
H              3.020318531197269              4.8183882808995495              0.5430417314214449
