72

H              1.4576472628877948              1.5826761518526316              0.16130814352467643
H              1.5162304444649564              1.1074981876149357              0.7543506923307914
H              -1.4556349866673362              0.010090063917964506              -2.0068223681052557
H              -0.6019350189840993              0.013245828762625705              -2.061663256972923
H              4.206896360343926              1.7748963628596037              0.4339973924175873
H              4.264870800179188              2.4478974671871074              0.4251728408795411
H              3.671645927533489              3.9986120184346587              2.5506831895267084
H              4.048463495865438              4.50325300682321              2.872758870905094
H              2.0319872549022886              1.7802522762413162              2.7125324282038985
H              2.622985856942923              1.5631071856620309              3.081721021421398
H              2.102810523931173              4.089240273829924              0.37064014864912137
H              2.0529357778676576              4.475507141228469              0.9589194341676478
H              1.5724745445897195              1.5463225577679878              0.27959449241597467
H              1.1163890003632084              1.1554321731861017              0.7976616549648758
H              -1.3621472052123893              -0.08426417829642374              -2.283988453112042
H              -0.6711626567372202              -0.16768362934051156              -2.1586626246631795
H              4.237891895502993              1.782459059185089              0.7156272864760469
H              4.7227301464120535              2.3455977852182017              0.6126527066289789
H              3.5169232937193278              3.958415797522694              2.997936514573892
H              3.9007098095069366              4.596084191963401              2.9186352488794443
H              2.2596138740733966              2.127473747859764              2.3643148827570886
H              2.4506795966502017              1.6072042834495601              2.8788374558689585
H              2.4039330665321343              4.13550479070083              0.15531546023490694
H              2.104747302803941              4.340792538683663              0.8090682438832034
H              1.6588653085293996              1.7360757428314233              0.08495842041138062
H              1.238242882260215              1.2611253500684276              0.5315672444846873
H              -1.1125728625561484              -0.3601684798486722              -2.3371196825848948
H              -0.4047657854693543              -0.04202734746688015              -2.2467645119718256
H              4.444209859586872              1.7789316645996907              0.7607042287178466
H              4.679335214810531              2.3783049788291017              0.5281372422223624
H              3.536421307485709              4.04283921380855              2.8915160206422654
H              3.8269436427015435              4.653034995402862              2.9371976176260257
H              2.086173201737365              1.8439106082360324              2.5122769384836254
H              2.3172259549401426              1.9471618470236873              3.1696592135160975
H              2.433578340100144              3.9090841324276377              0.17266050218072293
H              2.0315579169692213              3.8628127197580393              0.7655523557824956
H              1.509827291297179              1.8921446100335861              0.20155343725596053
H              1.2841785204398424              1.2284259753953468              0.34508538229047314
H              -1.3090534845267516              -0.250884766661079              -2.3690363497125753
H              -0.5198919026656379              -0.3421844179865835              -2.1149197879876027
H              4.434083207032133              1.7475897819098414              0.6708352758874361
H              4.620296553272147              2.40358771128807              0.43948625832126254
H              3.553408646673514              4.248680213329606              2.906897792785781
H              4.100138329402249              4.7143141507724104              2.681101884173192
H              2.4168704423886123              1.6669138570342743              2.703370804320523
H              2.3413598956043633              2.0752252948900036              3.2744741999358746
H              2.504654550170687              4.0672620065409015              0.5612349296511278
H              1.81368332148905              4.195378980569535              0.7121528718415011
H              1.5328480031691232              1.9453676946172056              0.024287953423615158
H              1.2534661108731808              1.217306377629852              0.28682645616341573
H              -1.5018228562301803              -0.28476760804759665              -2.2852172758112244
H              -0.8299031553454774              -0.48944767441418463              -2.2567577287789886
H              4.289477048291894              1.7643418350230051              0.6009392322661449
H              4.543341288652349              2.4075895284487085              0.8228426164416156
H              3.4314846506960532              4.157357988148284              3.0262267553564737
H              3.9625961682366198              4.508302253405873              2.6320183812417692
H              1.9922374066893804              1.641897758205285              2.688973425835794
H              2.3439279274932874              2.094102997358829              3.1654970531777544
H              2.368408410695399              4.263051417680996              0.5337519098991185
H              1.7509498965234818              3.935100139566837              0.8261646632504871
H              1.3981148537872563              1.7010756094577282              0.047577402803731954
H              1.5456002734906644              1.1150392959799194              0.46018041430808265
H              -1.4179619611015841              -0.18226911196793055              -2.12336115082349
H              -0.846204030745495              -0.29272128977967826              -2.4355731035117616
H              4.32600954823487              1.7158039396274              0.7987700261851791
H              4.489438160899631              2.46359147184135              0.7463796031564675
H              3.6554425744362358              4.063418236389091              2.4844564153454876
H              4.043447053239739              4.520902477906096              2.8856592286857117
H              1.9520429571294633              1.3389612148863796              2.7734424950049372
H              2.4248537362582936              1.9462445334234741              3.085860614239234
H              2.0949486851885246              4.077644701745699              0.4765887441248925
H              1.8690835796866567              4.330273409809879              1.1261267418459502
