72

H              2.6610144504238447              1.83986507438816              0.8137382950669926
H              1.9221210399193809              1.7942076188144647              0.7304417550070387
H              -1.5770956475606148              -1.4948858141303054              -2.2357502979504305
H              -1.1382353614809095              -1.5126828606721117              -2.7349588318127465
H              5.0745577384800304              2.1328023072598348              1.1458425297724408
H              4.871067324608347              2.420577288440546              0.44532844477089817
H              4.083199488579051              4.7092521931564315              3.175112603305032
H              4.616151520205268              4.195590252644118              2.9975559702440018
H              3.5485812434758364              1.396779883503074              3.488639221667065
H              3.0954607895660504              2.0039347821256057              3.37592376014125
H              3.0996526054948546              4.161577420292516              1.0332614859619642
H              2.5849093220458665              4.220460775658591              0.515924639776568
H              2.6048191867550323              1.8047613320038554              0.6090108030505793
H              2.0567551479158133              1.9976896651714413              1.0197007749303766
H              -1.4192945359961557              -1.4578671002041628              -1.934838501257822
H              -1.0333295224502048              -1.5903210489685693              -2.6523257575237977
H              4.804633378608372              2.298944315465003              1.1504882913977026
H              4.855020787616598              2.45435862974919              0.41907362158549544
H              4.602108290234157              4.513209183344944              3.2237391531886486
H              4.751194894214167              3.8492559969607485              3.054120671060961
H              3.585756671386858              1.499572065715732              3.2732556770368317
H              3.1853302908198864              2.1757082560481944              3.231138557840174
H              3.169373055145377              4.321254189175243              0.8951857078031337
H              2.556266046789487              4.533914907924317              0.6553310254950114
H              2.2427181847337954              1.818194644919814              0.6284413300274626
H              1.8743985830473042              2.274478492155473              1.1398671966086673
H              -1.70249099417814              -1.5556447767703563              -1.6514829912334983
H              -1.5138899139823725              -1.2946172943675027              -2.4142355905740676
H              4.780177609994664              2.499810410144395              1.0974586637396955
H              4.580614490902676              2.2672810856043633              0.3770616090440887
H              4.612389595146839              4.520763729314192              2.8764567677283552
H              4.871777585105431              3.8922156483920385              3.149767417225426
H              3.4065329716828123              1.5560906152438132              3.5755071144050197
H              3.065535101063176              2.2340636674551826              3.2657478801203754
H              2.8736009728498293              4.636480943281516              1.0866538372392383
H              3.083558129579396              4.564485804429501              0.3684222540478243
H              2.5164646245491333              1.8953043192168684              0.6263600716419768
H              1.8154113908651055              1.708345349003582              0.8296846123596181
H              -1.9464814640910448              -1.3916707677855829              -1.809897887752501
H              -1.645633272757481              -1.4111510427209364              -2.4617643098766693
H              5.188510182226615              2.2600760471478414              1.1866254588615177
H              4.639231876830304              2.429769414814943              0.7036735778132438
H              4.652066465043931              4.582897516513835              2.774889733581603
H              4.675157374701587              3.9045174819385418              3.0499369342240956
H              3.430680236141145              1.9352415564968373              3.4349465595704287
H              2.775309875922238              2.0560147336131807              3.8823516505465006
H              2.831999567193595              4.5728823378401104              0.8877076117112093
H              3.001393623016854              4.451804049393613              0.17803944568281443
H              2.353892351062527              1.7186455492641697              0.521948435231993
H              1.901034963683553              1.5866265214962292              1.0327669812477105
H              -1.736870504912845              -1.0757660128433466              -1.8818973407008708
H              -1.4149969381597058              -1.4214980494870888              -2.5427625339869833
H              5.107574831935425              2.6122312630320446              1.3201200930067072
H              4.82456585566465              2.5745452803338047              0.6255354312975998
H              4.568595449101235              4.77019210569719              3.011313005987342
H              4.789818577415395              4.17606915973279              2.7914215230361648
H              3.599912332335415              2.0516399738702527              3.601614431851133
H              2.7854548458998254              2.1800866188320085              3.503661970854818
H              2.838559113230913              4.298246076447378              0.9740400710180134
H              2.566028168240689              4.4863424448882325              0.3550296249561156
H              2.4190981440582946              1.3476439319359232              1.1454113373429962
H              2.0395119096437377              1.718593442593364              0.6377429772960267
H              -1.61560941212218              -1.2993054771958832              -2.0151282552311467
H              -1.1675118597004235              -1.5255485268411433              -2.4762737974879494
H              4.980694634129443              2.6696725426599066              0.829283992156173
H              4.561670698794              2.4538545495990745              0.22181952060849972
H              4.213303280348823              4.844245887412515              3.1258895900575134
H              4.691814630954739              4.181829064102939              3.141571100741655
H              3.592832620662475              1.8258622637320505              3.4628399036946944
H              3.0104449040985424              2.3370192298361117              3.5676917370014913
H              2.9174824639343435              4.410190844979181              0.9553918521106253
H              2.668657758547506              4.563806915348357              0.32091223139077474
