72

H              2.115294490370001              1.4158206753890228              1.1342589204119846
H              1.5880408301982065              1.7187889877529445              0.8032871644589767
H              0.40553924805061414              -0.572886214315185              -1.5952027594629767
H              0.19339769210235233              0.05506722680903317              -1.882005149971226
H              5.612970340094894              2.455547839975213              1.3037104598654923
H              5.257408017397898              1.9858654465518926              0.8472070661704485
H              4.086278814346474              4.820828904115759              3.176338827008365
H              4.256009323419484              4.2451803576521305              2.804554677731604
H              3.2242565754265335              1.4776961002425115              3.1424339698083106
H              3.234786357839572              2.1920244880079336              3.1234808540516004
H              3.1411692124496007              4.23743606167036              0.3413038021057322
H              2.9464190697017862              4.704336601898153              0.8676182024585225
H              2.31921509954773              1.4937465458220895              0.6432774405162023
H              1.8253791387893246              2.0294683232800486              0.8124695978778286
H              0.2649280606446457              -0.835704398724812              -1.9683982229123307
H              -0.007921345667557252              -0.05353515967416925              -2.11958356832574
H              5.502700251436855              2.549700336392854              1.3015606634269858
H              5.216922903771699              1.8694923940516328              1.1218458588084663
H              3.71494314153409              4.82977300409753              3.0787770225222855
H              4.24994681604051              4.373243842074012              2.8094461814236036
H              3.1010918253163724              1.4267632723078227              3.1196907521885326
H              3.261703774601275              2.1845772297201944              3.1600584967033685
H              3.1128731097430857              4.284823398184338              0.7313274361217164
H              2.71432389777698              4.693407158896985              0.2101826901008467
H              2.4583099530231087              1.5063436105149983              0.5661721798537438
H              1.781205723746875              1.502399385582364              0.798180876580036
H              0.45561912117717646              -0.5573448490868402              -2.157609523032558
H              0.24562347156851547              0.053040764622375225              -2.31122799573415
H              5.558597748607561              2.5105647440016976              1.4486690081976752
H              5.056316410732866              2.0971363856302743              1.2453581057959358
H              3.931158996371997              4.872454468885265              3.079608718386923
H              4.141836392690914              4.278673534505563              2.6006245459669457
H              3.05260617319868              1.24872123870431              3.109658334475816
H              3.4006532122535864              1.925977274174528              3.193126100677526
H              2.9130381207963647              4.091270559783119              0.7729710761179991
H              2.6041810389614954              4.666323383519324              0.3500037035413701
H              2.303326441529866              1.759800151688029              0.8183149058308121
H              1.484326789805829              1.8721555663953569              0.744361325489202
H              0.6113842349116572              -0.4050899391644944              -1.8289478729395445
H              0.6468387559876908              0.2292920753282552              -2.132762441517153
H              5.666842386262052              2.487791229698514              1.1874233508676142
H              5.112046438909702              2.2657580038944247              0.7395700465975946
H              4.153734816899447              4.558304785794738              3.075571875275221
H              4.2019579966888765              4.20773593526621              2.408821294781007
H              3.7723111704098136              1.2932856352564945              3.371252291243985
H              3.152437371092015              1.733021323193399              3.2687903805806267
H              2.8333768939148927              4.062633464449157              0.6348829360187914
H              2.8307497842333813              4.756056673199865              0.8551368275647281
H              2.0496161419427064              1.4295925214647445              0.7978283892384712
H              1.4649949153908128              1.8594429279889466              0.7909987505935026
H              0.3882848505146413              -0.4288125855274793              -1.7387072162672834
H              0.7145703077595177              0.18954106819759217              -2.0512495076151134
H              5.395660712306575              2.370201077775428              1.5369842784636583
H              4.901980688076418              2.2602982015038364              1.0086995270427748
H              4.309179857135624              4.595445462635818              3.1497755656872095
H              3.953866755411851              3.9570800343034462              2.922253102113892
H              3.48589836637836              1.1782947290863302              3.5136166457302727
H              3.4862903891131256              1.9308354627613844              3.089571747547653
H              3.1587685571752404              3.924173565515999              0.41078705507551383
H              2.89777872450067              4.609413519655477              0.6074316089515216
H              2.1372044750451527              1.3368500691995915              0.8618339281689892
H              1.6991650347808593              1.9489445371652              1.0059525534913851
H              0.5513823413750882              -0.6116178191205148              -1.7194068263957194
H              0.48255764798723616              0.09648245809918134              -2.011930316473611
H              5.481609234939817              2.67008827400654              1.4412174053594302
H              5.046738548053627              1.9680635223875864              1.3941135756518552
H              4.263880564668162              4.7107763365123505              3.1161282656425002
H              4.311512302726486              4.083134751394538              2.749255805386316
H              3.1279368351837284              1.1819085182236302              3.5090948646616713
H              3.325488523601125              1.8253719027561204              2.9756125590930638
H              3.445603796101924              4.015290523006478              0.5145759091725525
H              3.0434587071192203              4.6108780426798335              0.6710201175587213
