72

H              2.3897779361208116              1.5602705674155775              1.055242734926655
H              2.05602211150293              1.7797332874323952              0.49427877559773
H              -0.3656307003427461              -1.2375975211722208              -1.8925354521792008
H              -0.7716464295368921              -1.832405795304741              -2.3545495761562742
H              5.009656128002508              2.154606497618134              1.7014749118722372
H              5.197400861653972              2.7837996095963056              1.2536528234135875
H              4.298796393830049              4.8518899807505464              2.6598033845265494
H              4.131106495291743              4.165925103390306              2.8369769559403486
H              2.695806804319259              2.034665236922214              3.753846292157152
H              2.936573134734256              1.792805061562239              3.1848438805066692
H              2.9884309286431465              4.441086469277551              -0.06379639962387329
H              2.8258771483985297              3.9929039703127662              0.5099989858380196
H              2.1568633488895754              1.1630382970616637              0.972251141342266
H              2.218042135723607              1.913732133424042              0.8971644849817298
H              -0.3656578968909815              -1.2613858204397803              -1.7981163346995408
H              -0.820661396357375              -1.6080542043426986              -2.240669038506563
H              5.015289867621026              2.279426904928815              1.478124367634129
H              5.229828559013462              2.983414964012672              1.3382360743536876
H              4.542199498586996              4.786821175176006              2.5184746306574035
H              4.554310376427656              4.307912447736338              3.1366965672454374
H              2.489338917452017              1.9592098105049542              3.6286581756578378
H              3.0126413743461264              2.1299791217809645              3.220230772751448
H              2.8711277631155894              4.50044373148801              0.19358823904152567
H              2.568914572662794              3.847426038728232              0.49904309631375626
H              2.3157539717601403              1.3653627397273005              0.9686625948064268
H              1.818845492348189              1.803984093399488              1.2686418233009735
H              -0.5641554662703815              -1.2864596344511077              -1.6383441450938676
H              -1.164282838928693              -1.4381388840790117              -2.107433601437013
H              4.736927784700436              2.225207362778659              0.9872602681264772
H              5.070437952888334              2.9506753886965043              0.9240547524105083
H              4.562067650200994              4.770842559280107              2.6017889554809694
H              4.480980700438912              4.515957234031332              3.2686890281617274
H              2.7700525291481317              1.7571542807944611              3.8310738218582947
H              2.812434047449749              2.1940637651112227              3.248249499937296
H              2.808424274786519              4.675469582229855              0.31859511396027745
H              2.8296222393443986              3.9359250526227094              0.3903768931747377
H              2.336358110045438              1.6100355026540034              0.7739305624514455
H              1.6649845173458564              1.6158159577125775              1.1151720131947516
H              -0.5229757424181845              -1.0861431005526323              -1.7891054986138262
H              -1.2237561105031165              -1.2636659659508447              -2.1439956868491725
H              4.824487401782502              2.033907301888957              1.3557234566089589
H              5.161979232775207              2.6386989731510195              1.0904094950874628
H              4.40727643264994              5.078359511373783              2.641354469249569
H              4.292084679334585              4.450646058841954              3.0783805101630715
H              2.595938715500774              1.8381188525496797              3.9158146577984425
H              2.8901377904884016              1.9124382127208408              3.3001489560292097
H              2.850409219884122              4.365813177901075              0.5217388892700952
H              3.02309442800014              3.6055050623893354              0.35015301637757246
H              2.327928686406099              1.5027115769707269              0.9810103430625362
H              1.7929291607286884              1.9926757846050183              0.8772114857596814
H              -0.26608460193010663              -0.938697810661937              -1.7951333034748715
H              -0.8944378867017989              -1.223761407800217              -1.935440317276056
H              4.587523370147025              2.325556123760987              1.4945933610215796
H              5.054968377443704              2.764647594463564              1.0418970276905677
H              4.357575455006812              5.016862949622314              2.4666652834019183
H              4.555585791394993              4.4810288141551595              3.015106252385668
H              2.8342177008147305              1.917805894983404              3.6195948974452756
H              3.153803870264703              2.355968942676188              3.1867305808862736
H              3.2142090625994073              4.425276442257461              0.670527669396594
H              2.7432291699858236              3.9697751351249364              0.37412774497992923
H              2.1977262580079864              1.4136210426406126              0.8360386780668
H              1.7641725080825206              1.9944648390713446              0.8863891653835099
H              -0.3612778499778179              -0.9916474364937993              -1.692351466269965
H              -0.9027572859877359              -1.4267733165947272              -2.065276818796844
H              4.583409442870273              2.3041379518912986              1.431189156716752
H              4.968129494911636              2.667027391193392              0.94661022782208
H              4.047325014263872              4.99348691619896              2.582400295108281
H              4.375277297820095              4.422521914600297              2.8667286547897035
H              3.013326329904669              2.1448436127334984              3.6513300225017384
H              3.12861870092394              2.036777434481079              2.947977411449637
H              3.177517729925224              4.527168801395092              0.33850945928253223
H              2.744749367240538              3.9663915084623174              0.44542525875880207
