72

H              1.573201978777696              1.5835295941716485              -0.263615194234386
H              1.2251146432933284              1.181428176425144              0.16808078387907216
H              -1.4868076715941594              -0.3774789488281455              -2.4819642360779834
H              -0.7291430467314303              -0.6579489364407777              -2.490348622002588
H              4.543410437428833              1.7103979568861232              0.7110227423397071
H              4.762411066822313              2.463386265095852              0.7175685286255283
H              3.6518314450496243              4.212004783177894              3.162600178893818
H              3.8672983429707326              4.678652395519376              2.558161065988907
H              1.9395496589885228              2.0322008189440806              2.215713886275491
H              2.140951772728943              2.17155974652492              2.941266824054087
H              2.251123478192211              3.789782571882589              0.3811499845830259
H              1.6669474304149567              4.04193470315445              0.7449230752277439
H              1.4844950188199408              1.8212502157988186              -0.3721499436433393
H              1.5427171391034948              1.2253864243415353              0.13647630579761635
H              -1.3374795850273833              -0.31353130462292683              -2.173026594584772
H              -0.6492230603933196              -0.5389462610639567              -2.1315712518560037
H              4.120102738537761              1.742835182298944              0.4648160704068738
H              4.3685207591435              2.4260867601644485              0.6585199033674757
H              3.8589824413717833              3.840287044894452              2.9249347512951105
H              4.063440219687331              4.540861831118125              2.7532337561820572
H              1.9050261888905853              1.790224493395493              2.6233330396424073
H              2.09469090313814              2.0607532171362517              3.234833762341887
H              1.9859934476861638              3.895601794171201              0.3473448391693039
H              1.5380339235243645              3.963325514130326              0.9652910684483693
H              1.6017969711451532              1.4618452086682654              -0.049504106110245714
H              1.4748712513849191              1.0790901081820172              0.5309275970769121
H              -1.5288980714038236              -0.21926141610699196              -2.069415029467207
H              -0.9948302435019852              -0.6744335172362327              -1.8082804539824873
H              4.117537461995395              1.706148865336063              0.6016188754777864
H              4.384381193678001              2.3292043199818497              0.9116840878267081
H              3.7853962732180757              3.9327672184255476              2.993600837867577
H              4.171689452600633              4.392376451483267              2.5453820297392338
H              2.082900867252168              1.8226683445202292              2.5527479189602778
H              1.9844962288475068              1.7345854673486174              3.261017249333675
H              2.0548876547335593              4.036997261532547              0.518358475282243
H              1.6320303724611633              4.347967125598349              1.0325204580518526
H              1.6970593992103857              1.438852010996959              -0.12003456202006213
H              1.3117952161223976              1.1112306065913524              0.4321225601723768
H              -1.8130515719194218              -0.40553147945501417              -2.3511900759280033
H              -1.0507539532878              -0.42263814866122534              -1.9184752269540941
H              4.156469486725248              1.6513371351772945              0.6658570271800273
H              4.626847755718862              2.238238191919405              0.7420317937758183
H              3.3858304310782774              4.0688120126569745              3.0223633881306835
H              3.916567236160912              4.3335582171986315              2.5484601711233053
H              1.796559659436683              1.9469728698692437              2.450041726050292
H              1.9297261423188072              1.7347550417112165              3.083455009819612
H              2.0159032846157516              3.9034757794102934              0.2925526443041299
H              1.6814342488454885              4.18489407043984              0.9076906340267342
H              1.7865527177349285              1.5166807946560124              0.01930198416016366
H              1.2947946049151826              1.0298763886998947              0.27766564152011486
H              -1.5420550123043915              -0.40716626181164733              -2.4579531623645288
H              -0.9526328326646787              -0.2958342262548885              -2.1227799628064767
H              3.829238117131278              1.8118049975884143              0.8899653872806761
H              4.487268240903409              2.13036460528196              0.5599848118857599
H              3.3930777290001837              4.14621933192658              2.9037322944298536
H              4.0684930570445506              4.615054739829422              2.722972310556808
H              1.892433429795445              1.9393855332677177              2.3346140138378817
H              2.2931925541166964              1.7973233039696586              3.04182534812503
H              1.93383203110739              3.827895991889138              0.2214719282400982
H              1.7440828189056528              4.330504595559899              0.8467804472876727
H              1.7780620270755563              1.3503555807257321              -0.09991285025454077
H              1.105192864956344              1.2778746955985707              0.3363005139226078
H              -1.3952152994110578              -0.42858678300183334              -2.399574295646947
H              -0.7519888521238117              -0.37808424626645826              -2.1539673389690495
H              4.172260029962916              1.7430722797790592              0.6855733784156995
H              4.446055878920407              2.4370985770129057              0.7492266723995835
H              3.616013818695817              4.391401346567984              3.139360149765031
H              3.819973035222146              4.575407940662342              2.4544908872994964
H              1.7752995361104373              2.1871820484768554              2.4525473511084313
H              2.3234351949786007              1.818767504962245              2.8303307138682667
H              2.229132596529388              3.8718427093666556              0.2578419074732698
H              1.7555780299633867              4.099698528740659              0.7817887263015215
