72

H              0.8827983091900662              0.952492063345948              -0.522606963109326
H              1.4178164355694902              0.6347241026631546              -0.8910948446956133
H              -1.0346877396973149              -2.3581495181272873              -2.4679299619185096
H              -1.7317342026295182              -2.5586395523702476              -2.2522325994524715
H              4.087196900227964              0.9856439617950514              1.4002400319899544
H              4.399916539065337              1.439906412726121              0.8949568517294946
H              3.6260648877845596              3.7367900133554626              3.0624430210709894
H              4.134199024952297              4.366751476178559              3.00456829318928
H              1.6401026145810227              2.203102587809981              2.808013196998154
H              1.6362985207423144              2.4946855147529297              2.178682164357635
H              2.7228239223557176              3.9245468437924598              -0.22913427918595614
H              2.2743777115760917              3.826767143493713              0.3504128341717751
H              1.1315592953494982              0.6327957704276752              -0.6503514809701058
H              1.5838136541005716              1.1965144899818723              -0.5096180995733707
H              -0.7761794432181199              -2.423275201704592              -2.136544806999344
H              -1.5049078932012727              -2.3486298031587016              -1.8654444610093657
H              3.770633472373611              1.0459553168850595              1.3398430782782533
H              4.154626052057442              1.4328285040235695              0.9202238902412031
H              3.8739142498935144              3.540841042828546              3.1011536339175696
H              4.421697966022879              4.01948398841781              2.8959127747326554
H              1.8748722452847977              2.212196817700381              2.580571406554656
H              1.2458640982232922              2.3647041514841134              2.350504793332629
H              2.698933570361379              4.186505122998994              0.14905486490071418
H              2.222745241308075              3.8269287980043916              0.5003146334903218
H              0.979616766075229              1.0743768774417775              -0.4913022212353539
H              1.5920741871801527              0.9420648703142123              -0.13647269294208
H              -1.0672882230014196              -2.3970642375281153              -1.7728429761181121
H              -1.7748015892516402              -2.535921887772597              -1.8386816614153185
H              3.6430906445527116              0.9644453645528529              1.4509215429702964
H              4.27426810985124              1.4020041057499322              1.3553993643682312
H              3.9372952635451655              3.613622607182978              3.1583482936053895
H              4.605648916256362              4.022159655059725              2.9731322435667242
H              1.3845271464343458              1.9528210724164876              2.874911560281536
H              1.4338899002747312              2.1818832436763085              2.1790746599969406
H              2.754608787655246              3.9317942086023705              0.3958968148020231
H              2.0903390184947037              3.718067000789706              0.17443692602062813
H              0.9389007657476575              0.7372617300922581              -0.5950176560600544
H              1.5395404232905772              0.9762412234682307              -0.172106511818455
H              -1.3636656720574996              -2.507575629736382              -2.1759608457902444
H              -2.0610218810394145              -2.586911132838999              -1.8988785952287466
H              3.9186493355572156              0.9033581980442261              1.3050416959469158
H              4.4624859030549375              1.3279683253640093              1.2675141460012596
H              3.5159458428448818              3.8486832322972253              3.0338228029404912
H              4.237912367460426              4.124550034918714              3.0407486177300957
H              1.5124804683240616              1.8177624257383367              2.6349493695297403
H              1.361223997069757              2.410934011409835              2.1331234943650914
H              2.61661631456866              4.162471397414178              0.08832252864898846
H              1.9864480993738647              3.7403620483387336              0.039660199022113346
H              1.1438021661359647              0.733761977482636              -0.7694592278870338
H              1.457670922836523              1.011109364224209              -0.11476387831343118
H              -1.3665563201318838              -2.246623157086718              -2.3233535017802573
H              -1.9277637656396418              -2.677903780762155              -2.161008324154423
H              3.6549555142616055              1.083329952994664              1.3240308661424238
H              4.3903964628591945              1.003348753924814              1.0533692665447854
H              3.6216951403873674              3.873195227734634              2.7613366080783335
H              3.989462870741029              4.211869110613962              3.370321652468507
H              1.7600731104519542              2.1184031764469795              2.8261851079035143
H              1.3978046146607674              2.39345929558353              2.2271759621377636
H              2.49643761239037              3.703523008493411              -0.16135187486853234
H              1.860717179655354              3.895092465720506              0.09022476216894086
H              0.8104837760482723              0.8790938534317664              -0.5274485408350366
H              1.5036137543129997              0.6369445431107962              -0.43443505389549386
H              -1.1331205196634095              -2.305983363046713              -2.2621956319999352
H              -1.7875394982529877              -2.610644436217933              -2.2259354251688226
H              4.088342223535724              0.9208136487706066              1.3602061916516042
H              4.449794511601917              1.4891472118855669              1.1803411321645396
H              3.5798485681446546              3.8949679377511486              2.9339879617888
H              4.1701194647357624              4.424920927826236              2.9955990941824195
H              1.7290106283700193              2.256376579874675              2.954244448026144
H              1.2746524564661246              2.252064923767258              2.308017067140972
H              2.682309061332097              3.770138476111902              -0.17626386305269817
H              2.025876622773721              3.937541021122087              0.11242364441564494
