72

H              1.3316812392692028              0.9483719091452562              -0.64015402622986
H              1.2308850967537268              1.2570733605174143              -0.017091419580458973
H              -1.489385470962661              -0.6218004142513942              -2.377853132389374
H              -1.0954014688958422              -1.1591642540235483              -1.9509849462050841
H              3.880854038402145              1.7775154107691484              0.6004788592463219
H              3.973052592924338              2.380529964660599              0.9983321668443087
H              4.3747588568048785              4.387858514485205              3.031792400801139
H              3.852048778486693              4.308881408030617              2.61273446523477
H              1.63946360837732              2.52890682258848              2.642645116203012
H              1.7077466043406848              1.7705121070679846              2.64971930143981
H              1.7391679897896155              3.624416172807452              0.3591941793875854
H              1.634924379387592              4.02848822635116              0.9080477457159837
H              1.5392126055414728              1.0969363075536844              -0.4868996387655767
H              0.879189370083964              1.3175592496890796              -0.21950297374484995
H              -1.4642641939749326              -0.8418027768598696              -2.289563408118044
H              -1.1327629214274302              -1.2481285896817698              -1.7548968345954976
H              4.3935711608769275              1.6727268023376622              0.621475609071326
H              4.492747296958401              2.3977908961909575              0.9587983076702701
H              4.344510741546124              4.344520769105735              2.9665785665231477
H              3.791507880159929              3.947336788636467              2.761153653971712
H              1.4403298049612043              2.497366415021338              2.6744893936293135
H              1.418825204248929              1.7443876401778804              2.725253350350965
H              2.1422906944008107              3.9505567560427344              0.37820223154387284
H              1.537231236542671              4.0165688946829015              0.7845176686461617
H              1.5832950690062657              1.2264646838364648              -0.5393718088126039
H              1.0572526305427152              1.2618019755727217              -0.04937229689467404
H              -1.5345244648514766              -0.9711426066591105              -2.3339222148586116
H              -1.2732861563434588              -1.1525225733641007              -1.715138849589164
H              3.9268589600179906              1.6285784218929724              0.724280009134688
H              4.424091911916275              2.0854823739676833              0.9314895878284016
H              4.066038635124107              4.174318700618615              3.20934691833853
H              3.8112269907162815              3.9297066841232438              2.6264437747783624
H              1.3474717823269504              2.5126887006093              2.7305484326171108
H              1.611811299208785              1.7639190240838378              2.8797686292087095
H              1.8709186044420751              3.7641295489877433              0.26818131403278533
H              1.4602895950619716              3.904054625347012              0.8281481121010893
H              1.5851282870288452              1.2533010337075572              -0.27697655571726826
H              1.0496493533549973              1.168614255609984              0.1385373613620418
H              -1.6398329811404713              -1.0779216409580148              -2.3275461607942542
H              -1.513817465351816              -1.1537371963644045              -1.535794971482867
H              3.647278184840471              1.6087714428249926              0.9413352107877341
H              4.272113277703822              2.1071911326014416              0.8043082827013368
H              3.861509952613554              4.551906490955658              2.9003099439731805
H              4.033752363215512              3.97706303565826              2.4519415597096152
H              1.4068301007646158              2.2878536853542535              2.673973548403132
H              1.6581909404211648              1.7068507926937948              3.012905703684358
H              1.9549985401789403              3.86725451480702              0.5947765218147966
H              1.3618909770486627              4.224795893082764              0.7593120927966074
H              1.5662743635312948              0.6804588225761684              -0.31061030097458786
H              1.0591837354182663              1.1339085241249027              -0.004466199611625605
H              -1.9535985715665654              -1.0179565677755187              -2.6053692256581757
H              -1.7568973027654056              -1.3081333475912864              -1.9393087267249292
H              3.8325236782536445              1.606907053632436              0.9348936842999951
H              4.292643860944187              2.0718667371211215              1.2372231860652922
H              3.7831506453727437              4.764876557760236              2.918727721460684
H              3.5676556499600833              4.16333898397959              2.5653406050818752
H              1.2365530525762822              2.362133197870011              2.439342002380193
H              1.6878912811103493              1.8635577129614747              2.76173044391194
H              2.0423065080680156              3.7890527198943453              0.5723758172386622
H              1.3251594976651366              4.009906879715606              0.7673767498379493
H              0.9857621827336162              0.9335508677036544              -0.6127254656960769
H              1.3809562453456254              1.0917113078766545              0.039937848391160005
H              -1.8012192636720157              -1.0403118099404256              -2.64665443186877
H              -1.2983044944441868              -1.07625662568648              -2.2381488258044127
H              3.91749957156861              1.6457911475296985              0.9382042141110946
H              4.409389230951986              2.20451812908219              0.8844299611484112
H              3.8630272728744433              4.6543012464014              3.059687878816786
H              3.796710510578              4.445848436115275              2.360043181452885
H              1.2278156802218825              1.9987420663089708              2.3575165994304874
H              1.733162905450095              2.2845014105703503              2.71672058584042
H              1.5782181094798664              3.764196353609558              0.3327933436068818
H              1.5645387775363822              4.116114813761605              0.9540793430140737
