72

H              2.373815447060329              1.4384915076995934              1.0883594006645598
H              1.9684087447975775              1.9159999493909605              0.6561627805692918
H              1.0600143829616069              -1.0133217431168462              -1.7628012764353607
H              0.4846251663833493              -0.7233433705369774              -1.6403370612747115
H              4.854149960274462              2.6431619674374778              0.8310234460451845
H              4.964995146558596              2.0249694624127157              1.2679549871734903
H              3.8813850494566915              4.653301145073788              3.113687540501461
H              4.544030335624169              4.8184104216491885              2.925675982568039
H              3.106056294216467              1.951597045634838              3.3674838364928523
H              2.7474451534131306              2.1706918431834232              3.891040858235467
H              3.1338228873030434              4.066153601929513              0.8399535633330832
H              2.879411993599064              4.190485337821385              0.1969147131890962
H              2.611410152209958              1.4200878388766054              0.7754458808136347
H              1.9723071587658059              1.7240339918593088              0.7351415488574047
H              0.7721118719265909              -1.1676874775159194              -1.8783295277741565
H              0.07700379796460771              -0.7104579749520274              -1.8365476953671336
H              4.619182577466806              2.6043102557111597              0.9898230108252967
H              4.957273209421576              2.0407793841635757              1.3749035181253146
H              3.6766414540474144              4.580194208520573              3.0018443417957386
H              4.393072540391367              4.645214464273312              3.0697533994769026
H              3.0491925491235565              1.9741661191130897              3.3632839426839256
H              2.8467356704743367              2.2184317612695597              4.0331151809164485
H              2.8760207640193625              3.766258552178849              0.7144860765371277
H              2.754666239989953              4.138589592849518              0.0809230666510534
H              2.8982648339766213              1.4124356534077087              1.0224947153703714
H              2.1670507260788345              1.5738893216241456              0.7764136897505143
H              0.7769278159020685              -1.0499198691351102              -2.0627209081520252
H              0.28971159560847354              -0.5494126918002317              -1.8587954563198292
H              4.558378457883095              2.494205537859199              0.9177574614159821
H              4.813393424212894              2.157578745882669              1.4465797258975628
H              3.78250131076158              4.280912843286611              2.7763366971554366
H              4.357401604659204              4.782948994878849              3.0394200659108517
H              2.9465311394152156              1.7859858339451757              3.1951732245904
H              3.0606521397419217              2.029341520711079              3.894276053706635
H              2.5748649157908234              3.8569366346922087              0.7273554573240684
H              2.7454872263049883              4.110396972712001              0.07083687669272339
H              2.426175217449267              1.7571187285342889              1.209080162986061
H              1.8361799860462058              1.4561299975396287              0.8426543674448148
H              0.7633719077890282              -0.8560669919063434              -1.7496681739009223
H              0.649365900726591              -0.17421998865008992              -1.6477461539921847
H              4.71927003463949              2.424285989465116              1.0127311869956177
H              4.7516933085957715              1.7119979555252243              0.8842181222085758
H              3.774666416359173              4.378965288736302              3.188862479592408
H              4.413190931427833              4.678203086352263              2.799535118860462
H              3.3020380827076674              1.8521264531647859              3.114920787535203
H              3.130712713333102              2.108415013727053              3.775570808302941
H              2.336066632961814              4.0214654926743165              0.6808946992561623
H              2.8195386531498046              4.37254919940204              0.22883723630334113
H              2.4132491360874027              1.7698499793163625              1.062109791890696
H              1.6876908048654915              1.8554244470526122              0.7666884451165975
H              0.8068010142975945              -0.9780756837344025              -1.817862924001655
H              0.5850586083760287              -0.23580086147573762              -1.5661618609561674
H              4.478900255245398              2.2579069733113313              0.8608149886234481
H              4.679963175862648              1.787757530741555              1.4240902116363132
H              3.7127046594972417              4.618405952311165              3.0883627681803754
H              4.424845167493327              4.628069090919811              3.0088473121893204
H              3.6589760799340465              1.901895569173359              3.483539836164489
H              2.9073311470259986              1.8567804951863034              3.6028654916684233
H              2.7460076212331117              4.02708928392989              0.46511578329722036
H              3.0340271953668716              4.481372076397369              -0.0514748861438106
H              2.339979098305829              1.4516444910793114              1.0599059787213954
H              1.7206319230097216              1.592265883125591              0.66018899366896
H              0.9730163090378678              -1.0335394387885508              -1.9668751844996746
H              0.5604428295429392              -0.3020759720991471              -1.6967646113663455
H              4.794406279781979              2.4219017362732616              1.0815116166851846
H              4.734626322331666              1.8827474060805653              1.7081381139481473
H              3.7960181439820455              4.99098665811469              3.023443529713292
H              4.500942202137032              4.649980932350927              3.1115696812117077
H              3.285513675249271              1.6193515101314888              3.2716029204208588
H              2.904606509109645              1.8676082776498273              3.757025166304148
H              3.133415479639365              3.856020901776189              0.4407638101576616
H              2.9433428999633517              4.4854017612913815              0.10826655044092137
