72

H              1.6175403593399533              1.0835264347185987              -0.6468036356102387
H              1.3342268857486785              1.2600755414231584              0.012797848904531776
H              -1.7859054518205089              -0.6343620769122602              -2.416007799862737
H              -1.367958383407731              -0.9276711048241929              -1.9434235833268896
H              4.01315026320985              1.7169355131692385              0.7394624440079977
H              4.4181749831776225              2.348774609131448              0.811355606281839
H              4.028077262616368              4.44461726605461              3.082947244648471
H              3.9434239738026293              4.232356143413417              2.377573436273009
H              1.6103462123196102              2.372048325646864              2.24286991700701
H              1.7907896482890884              1.7804868465719776              2.688430628109457
H              1.724953228119221              3.7005908302868944              0.3749242402083892
H              1.6099249216696367              4.246309936656124              0.9140442668880936
H              1.6618015198656115              1.2317311652894103              -0.4684383892411232
H              1.0790850779659662              1.291468807980609              -0.08484623939080872
H              -1.474648375707416              -0.7783186039083108              -2.4416989815543797
H              -1.1286140195298087              -0.7642166803749206              -1.768517840342133
H              3.872672626745936              1.7978042103261846              0.43100015328755903
H              4.353031823246497              2.126415966450141              0.9439625935088309
H              4.065206341929483              4.10552825155581              3.334036134772069
H              3.718732614940965              4.1559229956327615              2.6578233179017507
H              1.419082657336276              2.485537371935145              2.412550110293196
H              1.810324504021141              1.8287835010560667              2.653290751105418
H              1.7317479805529619              3.7944683845895724              0.04247031179221574
H              1.5707791610582642              3.831951805200868              0.750892692578714
H              1.8573250101457308              0.9744988279781438              -0.379810057536828
H              1.224387733043746              1.2384021878589204              -0.059291819867629714
H              -1.3902665325546353              -0.9191644429233907              -2.4276408685101822
H              -1.0025119643005207              -1.0110166673670673              -1.7521406586199972
H              4.196309594590101              1.573733004924378              0.8512350140613085
H              4.587728048255035              2.242667250307015              0.9112608095234862
H              4.163987313026978              4.466839854696459              3.1406186742783064
H              3.7589519837803356              4.160685240912971              2.608928653464457
H              1.5020954890950051              2.3925295593621847              2.6115772600985667
H              1.6534824775626467              1.7344154498741573              3.034804179230603
H              2.002088427182568              3.678404140336396              0.18148430592252326
H              1.535422678126977              3.984903324885135              0.6902454405788703
H              1.7766955398728579              0.9687694892404458              -0.3934332591166293
H              1.0441597402509297              1.1753105352274944              -0.24246586847364182
H              -1.684131399072984              -0.9523058981388617              -2.508708024344348
H              -1.3028768033356453              -1.1107719993037148              -1.9378108476529858
H              4.244890565553535              1.531437283659463              0.7058740528424976
H              4.4267817060667065              2.249168274272526              0.6647351737352354
H              3.7692113288426214              4.72772696272673              2.99916596947055
H              3.760968816497372              4.120220544992954              2.5918066403178144
H              1.4119815989124085              2.393010449494136              2.7401805896970317
H              1.5522539506671398              1.7779291495358933              3.238598527970871
H              2.0649696466546876              3.77590409434219              0.4338083974637376
H              1.366499822739857              4.056249164993619              0.5220880719542451
H              1.3478565260011097              1.30249994557727              -0.5845608697696462
H              1.3894874189535638              0.9240400102890746              0.0068001666020710005
H              -1.8184942813451066              -0.84505905666826              -2.498080515503713
H              -1.3855403686377616              -1.3188138650218468              -2.0695845440433605
H              3.6385516317636406              1.744100073692959              0.9304727867198742
H              4.2831954049574925              2.156730079541785              0.9975134017220894
H              3.797405553456141              4.373325084699094              3.1007585719326514
H              3.9472053307735275              4.306064407141507              2.41745642985277
H              1.3602358947198474              2.0382650454611837              2.466372889693339
H              1.8218597065752387              2.0877970977035245              3.046272433369553
H              1.8663766635935743              3.924450765900164              0.6762595060202441
H              1.2859554727918205              4.202704393091596              0.9285992242820403
H              1.4876394199902228              0.9885632006970619              -0.6292732895705402
H              1.41651432507047              1.5045674287615136              -0.192313291364158
H              -1.774562657600846              -0.6342622538314855              -2.2946352593165384
H              -1.2384096849035107              -1.1580703203143787              -1.8685562071119959
H              3.7882377160370093              1.7334642415133348              0.9048573852264538
H              4.028551851496143              2.4214333215478727              1.2702957228128018
H              4.08827371398419              4.3925615806883025              2.9908804824345303
H              3.8816662715403227              4.220938679897332              2.310902418124635
H              1.4156463252917115              2.3755560876399056              2.669801465218771
H              1.6171719623267313              1.6403121159121115              2.73544829661113
H              1.68228786732232              3.72858678343023              0.5424907124397019
H              1.4590446312872134              3.99787425511954              1.2051224540720697
