72

H              1.6908787012993711              2.0628501527099536              0.34761436458943273
H              1.744040935748794              1.3904485255589536              0.5235141504911798
H              -0.835492747362436              -0.17660497045445683              -2.1783454507103417
H              -0.15178569366011582              0.01273166088528669              -2.253104310076105
H              4.5779045640503435              1.9191454489797501              0.7126392633953852
H              4.55878465497444              2.6190078459268116              0.2823173546457889
H              3.7617867075775293              4.3920906239329955              2.5867278718730744
H              4.188469751385563              4.684145568541675              3.2032209932097206
H              2.528562927201568              1.3801453525022918              3.1660201994148145
H              2.873452695659542              2.0134340906594845              3.2248486381312653
H              2.7751228815420284              4.563266596473467              0.3054078486262487
H              2.2459223179925822              4.124865250004711              0.713647221364695
H              1.9830859805331444              1.6790309302334523              0.17264485800258353
H              1.57320225375407              1.4589994938066921              0.7343514970938034
H              -1.167451757632353              -0.04738142473556848              -2.105743501571052
H              -0.48344358503002355              -0.26747420153971707              -2.3419864163947612
H              4.447677950770255              1.8695062347513736              0.49831824885106674
H              4.673305654345753              2.4939268676693502              0.8218332843207009
H              3.707066762625213              4.083310985251728              2.988926479053978
H              4.082674576197046              4.72735940700479              3.149632167532325
H              2.460476433039123              1.5202867657286354              2.9232027548470643
H              2.788028989897103              2.043578778452469              3.265485880410898
H              2.589435635046638              4.46329529493463              0.2813379614415965
H              2.1422294570517453              4.023158082943663              0.6756903684645877
H              1.6241707291532097              2.0137823875575416              0.25270791959373823
H              2.004996687995625              1.4893523728625249              0.5381989235618345
H              -1.060683140637396              -0.07659623834450684              -1.9448674808318671
H              -0.5687408697692856              -0.01900152408281299              -2.430539308820102
H              4.7070603508972715              1.7943175316120104              0.7291290595130928
H              4.539919940848978              2.4973693050329233              0.3422101163964554
H              3.954003831306222              4.328265326864027              2.489214775083538
H              4.002885891656921              4.299356364379428              3.265904756059952
H              2.3969629462503543              1.071407801536641              3.287061954067302
H              2.6061131868771548              1.8306730862507357              3.3632220397568835
H              2.45855620314763              4.3706019765759585              0.23709376323279993
H              2.150220715335364              4.225972673861268              0.9001240536354931
H              1.758603995862443              1.879701458681425              0.2834725015682491
H              1.563875598039686              1.434009205031803              0.8307630515260988
H              -1.0619443974780196              0.19573827276099381              -1.7868303705921
H              -0.47492028704113776              0.22167644081458562              -2.1788508762195273
H              4.303710698848939              1.7621005338631555              0.601337171414225
H              4.290029547022561              2.547247471994516              0.3156602991307631
H              3.9092952208830063              4.348200272992555              2.5278682913242334
H              4.009119753577219              4.2599713190502              3.273561616587589
H              2.4163837465260594              1.6268916644745612              3.286275202316527
H              3.0826192658389795              1.2951104927071735              3.435982884853478
H              2.3023237547956774              4.374125286886681              0.19451907804391605
H              2.410704727877398              4.483822770274676              0.9421125263397654
H              1.7420804985148297              1.7997905366045372              0.2857220432095729
H              1.278925025044213              1.8099123146430474              0.7773616530694434
H              -1.0791106407884559              -0.07164518327274172              -2.1232890120156287
H              -0.3774672840152926              0.21211486324291465              -2.230214584030411
H              4.5549440662256675              1.9206984706123769              0.9412080536329654
H              4.445869473731438              2.5078355256593716              0.43657682325013114
H              3.5739581220443863              4.2799135369155215              2.6743897615550667
H              3.9712355372978863              4.540664443442741              3.225350360606233
H              2.383563113378795              1.463976900889437              2.9748663284657013
H              3.0253982838164397              1.750231328102342              3.2743383095096688
H              2.7971977993195893              4.240515964600824              0.11317073011724006
H              2.4183881459484584              4.598390364004395              0.677070272437841
H              1.8840871719912324              1.9477645670989172              0.28472048222801316
H              1.4672106332754722              1.3067790841925357              0.48515569884522963
H              -0.9178802562875151              -0.13563850376252312              -2.3691662510376794
H              -0.15464328337292962              0.21285980093891288              -2.4087371795383943
H              4.486822958277734              2.0385308420809243              1.0045657222386855
H              4.458794444646596              2.5270822307847802              0.5017206708783126
H              3.6555464583914685              4.287248276546436              2.694046509705064
H              3.8322021013934684              4.707833149789188              3.3116248718397916
H              2.677432417175379              1.4615097679462605              2.818955665273965
H              2.667814428239498              1.959947951652629              3.3082624078908363
H              2.869951690397411              4.208036296674917              0.152834372949588
H              2.3334741424845653              4.096170033741755              0.6142467874365699
