72

H              2.1878545184580487              1.2739995244603959              0.7556701902289364
H              1.5945202171114425              1.7138113154836048              0.882220456317957
H              0.537610076524367              -1.1994216124764574              -1.9588301919918283
H              -0.23036799620212167              -1.289477010141796              -1.7729391280634725
H              5.099487292576614              1.941646445789333              0.9454437069966678
H              5.052195950678309              2.527319178195519              1.4383274301127507
H              3.6702005701713594              4.765884236165205              2.5518167019475277
H              4.14125884999605              4.6212386867141175              3.1124893046864885
H              2.565567689030867              2.550987200406313              3.767230468621286
H              2.5111912070694413              1.9102461065715703              4.028017039864134
H              2.910373731805352              4.396770500832318              0.4827443600810172
H              3.162839766936072              3.7622350315806496              0.2287589785760866
H              2.2302506808351388              1.3414708885896907              1.2560837530074884
H              1.8286552890340781              1.5763347737256301              0.6342191435284615
H              0.4321772770358929              -1.2048875459411115              -1.8342899505269896
H              -0.3401336510825868              -1.27940640373906              -1.8207214584043399
H              4.9736493401606525              2.3592983095674858              0.8038112470487202
H              5.155923317156136              2.7416518908839778              1.407885053187374
H              4.116757588945595              4.4765618897856925              2.4035346882780644
H              4.153559306041257              4.853617048944414              3.06701644544163
H              2.2931518654187237              2.559782200533553              3.6422814065630544
H              2.856246817036657              2.518478487253568              4.222108285460973
H              2.673439075915531              4.392219167251692              0.5776290307468624
H              3.0562625844677003              3.77775463069568              0.42894839017987396
H              2.269715666373113              1.2723473797267841              0.939774374874048
H              1.555885865284116              1.1315406611823156              1.137785680550904
H              0.12510786580798833              -1.136480412609992              -2.0234486796710014
H              -0.47545894608861444              -0.949505256235228              -1.7326596980984752
H              4.627778524703694              2.466986173834534              0.4777340217741815
H              5.07417922524884              2.32718342646444              1.0630754056786358
H              3.676851060219099              4.527634031552964              2.514561558601088
H              4.035086999012046              4.791019888591577              3.0753419248947815
H              2.3962374258213157              2.343622282980014              3.639838772007623
H              3.1316550460314736              2.234043994401933              4.007823655018591
H              2.476396421895615              4.3783239890043175              0.38886932695338183
H              2.921989644674555              3.7789734605122356              0.477771313902472
H              2.247245736475005              1.669503983009988              1.0483989431980323
H              1.5986836506555386              1.3313091558961374              1.0844164939865377
H              0.35067766095620023              -1.1694530846675197              -2.0896774649215635
H              -0.08365623477183691              -0.797812766153337              -1.697499287985279
H              4.74495721638085              1.9919591632174816              0.7355990383374801
H              5.132302605952621              2.245755184264249              1.1999669458984605
H              3.6404135295526663              4.512535301741105              2.5036207947416953
H              4.0170444827181155              4.626386043266754              3.1205731630089786
H              2.418269802230188              2.2491266511586585              3.7122023010623484
H              3.147533928774979              1.997941497417426              3.825387216744671
H              2.653669105086006              4.562302900667299              0.34389654176196377
H              2.9717031548753887              3.8578030474842726              0.4557186377214461
H              2.163651578176535              1.5957845991617716              1.2520050399154405
H              1.4327868954038676              1.5021145708244292              0.9539866099135823
H              0.5187224835041531              -1.008077131326619              -1.8789332999648845
H              -0.05219984002261618              -0.5937745035214333              -1.505737795170912
H              4.792922152227535              1.9828898296984518              0.7692747463790761
H              4.910607878657768              2.1963710328454615              1.4731197461931589
H              3.7212528178692117              4.547010226949173              2.682843273395698
H              4.3482223641794535              4.822291526171393              3.080845462387972
H              2.917022075758884              2.623176591918353              3.306429036465064
H              3.101710367881308              2.049423854789862              3.815269535734009
H              2.660842622364135              4.636340396635279              0.3730424861739463
H              3.16293905147316              4.0224373939981595              0.31183032318782616
H              1.9729784585508896              1.5806682822181277              1.2956946833605658
H              1.7108391677204131              1.8724538201122485              0.7249377027619713
H              0.4300691278708408              -1.1604939839183517              -1.9353057333726027
H              -0.22926979724071528              -0.8528191460138204              -1.5247733118317432
H              4.676904429279845              2.1631245130009384              0.6076320651934791
H              4.9008696332077815              2.2780173561867754              1.3127251342854647
H              3.6776022172538116              4.739741085248838              2.6600080252111447
H              4.241344151607543              4.837867949826409              3.0250450389788104
H              3.070024810688422              2.5420586704173234              3.679971327530676
H              2.8562276099239754              1.7450860337164018              3.6185815284057568
H              2.920101222468601              4.73128809620887              0.3481442194864133
H              3.173619098586857              3.9873940394482235              0.3881053951279611
