72

H              2.415806165820393              1.5696400996901032              0.785806500331136
H              1.6285610826119346              1.616353328408719              0.6878451573487016
H              0.14069168350588948              -0.24399758557151416              -1.933873215739697
H              0.45593386626857846              0.3305914400382437              -2.371588947369142
H              5.16517990934766              2.231283360012858              1.1732909517518655
H              4.983504745898077              2.6971983241035518              0.6249092964467531
H              4.536693291648589              4.663827664828623              2.9513223540329547
H              3.946310733853012              4.202942987254308              3.0830160486501024
H              3.394070822989123              1.4579227136638049              3.274337997432678
H              3.24398667079239              2.176199418722365              2.968824272734338
H              2.9807109166212076              4.508154688869169              0.20458843850993227
H              2.703023532571092              4.506101980257739              0.9128581950165386
H              2.3295018844559583              1.6788028064088316              0.5427963405802315
H              2.040485765875341              1.9367737923963801              1.2396635309818946
H              -0.07475202331964982              -0.24483819630375822              -1.7560606260252032
H              0.2893599763663105              0.09409815609125463              -2.2432879592812736
H              5.3646687055532345              2.2925438156237035              1.1450125274072938
H              4.880531461736211              2.585129680533032              0.6923596748404228
H              4.51311356450862              4.444083324384708              2.971764903383218
H              3.9941345043923384              3.946959051560132              3.197368516048036
H              3.280155138386678              1.7059933179383047              3.28025787524968
H              3.2234418559067173              2.285271112404791              2.822453774460139
H              3.242436259696968              4.3063373211264535              0.180750138517627
H              2.696328677895619              4.443690195590115              0.6065119539642359
H              2.3939843953683653              1.6775124258961343              0.6176986061020397
H              1.8679907352571037              2.031145798193956              1.0331885213571308
H              -0.26856800049231244              -0.16795881770122786              -1.7295368554241055
H              0.04215238757567269              0.17824627067509485              -2.2345498696376964
H              5.152326864833907              2.3375587174635037              1.2576713487796436
H              4.928852233764472              2.3112725300161086              0.5430035245171442
H              4.258431071518235              4.410913942051592              3.04457267065294
H              4.074071546039099              3.784561946231238              3.2749888786701877
H              2.896836220248326              1.7193144922525394              3.3337076389775717
H              3.5348941428716634              1.9126256136732225              3.0433231703527537
H              3.046056277766852              4.2292356260444235              0.11414744437430967
H              2.670345772042203              4.322035102365261              0.7025658709008917
H              2.2432787545605333              1.8628844759907768              0.5983560195360967
H              1.7666340070342805              2.2466890128619745              0.9566571186066415
H              -0.047445294470032345              -0.2642563017951235              -1.5021533546906845
H              -0.04510525718969342              0.3487002718216993              -2.074260719988131
H              5.118085622150539              2.2880903929841976              1.1568701463718563
H              4.7592435417333965              2.1787988928099784              0.4202289888711207
H              4.122570580160401              4.519747186253658              3.150011993244803
H              4.204185332850542              3.8582045911972687              2.921485727738578
H              3.1528090058286087              1.4683541221109222              3.5998192506023683
H              3.3135245287962474              2.067969001113618              3.1326258418299586
H              2.797324621610995              4.393274683317014              0.14664768523419505
H              2.8430512534889747              4.629976931480713              0.8254014499123011
H              2.251401927016633              1.818919716511294              0.4923068581649797
H              1.5425769171498351              1.9806107633120926              0.786126605374754
H              -0.24761298319015923              -0.27886643326120025              -1.925197907542063
H              -0.09555893488759              0.30988712762762677              -2.2149690569941525
H              5.211231000683628              2.2715574280840882              1.316074426462348
H              4.595676830279934              2.301180979169448              0.9832148193491395
H              3.989336550019695              4.843445546083063              3.0342996979588412
H              4.009010384900888              4.144365337442102              3.035276005619926
H              3.1646578039428994              1.5540723749417533              3.0447156770737824
H              3.51510492388647              2.2150616917205928              3.1795974973538104
H              3.0440111289816008              4.314372921314933              0.2427535809882
H              2.7141108018242153              4.8908264585281165              0.44731765914256844
H              2.3143410576730528              2.0545097888396064              0.23207355806319535
H              1.9264358178603518              1.6582056619470198              0.6830106829089071
H              0.06395610198327564              -0.3695683999198133              -2.3697100742883577
H              0.10126518080428454              0.35976259758921464              -2.356578356166271
H              5.289538547076257              2.591862295534833              1.122315478375199
H              4.561597885941326              2.3015467808910612              0.9518123499601115
H              4.019244819219349              4.961120807350558              2.9377991406494006
H              4.012300163465385              4.213986822093926              2.830669723282262
H              3.164629834782122              1.4482419538020235              3.2843952105814966
H              3.3142667611614036              1.9709294900055019              2.92798233074568
H              3.2321816993283656              4.215428012730272              0.3676214772049668
H              2.654433088773972              4.664578041189306              0.5170259480199738
