72

H              2.170715120722212              1.2911893595033208              1.2638453598376034
H              1.6434624185676179              1.433779523547491              0.7582911321855662
H              0.22495077607133523              -1.1488742834788648              -1.803086522931467
H              -0.44814255552935744              -0.8944873684946965              -1.474763935889855
H              4.7374393116444695              2.1215096133036875              0.7157904586194495
H              4.753031560773751              2.5169758423319433              1.313899507291611
H              4.09271012464937              4.521248529880801              2.587707559092909
H              3.9862147592914865              4.94798817461439              3.21479765027123
H              2.836990453659147              2.770022621103081              3.8039504351293307
H              2.563960909911381              2.0140002699926085              3.967344900869941
H              2.7997264071489143              4.332204701410914              0.29509389239196054
H              3.425295791829379              3.934609136878824              0.507011247666918
H              2.2654262760017096              1.3216026127301657              1.1745593313023857
H              1.6997185511458357              1.4078571079242408              0.7451377452023602
H              0.25344441604476425              -1.1130549744049065              -2.1273053072805883
H              -0.23873271450283512              -0.8544032152112023              -1.6367321101383179
H              4.695655108655666              2.2722117961339925              0.6491995658230654
H              5.17129627672042              2.2487219474425526              1.2087909812934228
H              3.5825654730351144              4.7870299538203085              2.4208922546915246
H              3.974189314328914              4.874219957284199              3.055438274859104
H              2.311345469495606              2.3894010318583394              3.6157369627266647
H              2.9986839812799313              2.283453430549983              3.8747926039829603
H              2.642730473212956              4.372995015184377              0.6480355385813942
H              3.112338227995092              3.8082872354853246              0.5188582591047167
H              2.462315233431879              1.5522062291347352              0.7162726895383803
H              1.8074250991904333              1.4150579063321798              0.9686881847122081
H              0.6376796790608736              -0.994194306986711              -2.060933553831656
H              -0.0578789752504015              -1.0449837574838043              -1.718314945084635
H              4.704198533124385              2.075219019937936              0.6471210041512995
H              5.046913251514337              2.434238773807223              1.2571901318384067
H              3.4544893305823106              4.484428413445653              2.510818965276583
H              4.0413475846215485              4.670156365175805              2.926572562421541
H              2.583494645459866              2.781074053737346              3.531462019098588
H              3.011171408987768              2.4651548322268533              3.978363950814668
H              2.519341489143713              4.360736133674565              0.5601684718566221
H              2.9452686617785537              3.8517875137462045              0.226558285185016
H              2.2093952422857455              1.7352632897883478              0.990948483741928
H              1.7910251025309674              1.1849617770690244              0.7963907970021264
H              0.6483892948741267              -1.1429820457643518              -2.2000699011746505
H              -0.09305211856944096              -0.7479868362465325              -1.8480586646830384
H              4.75804251598484              2.38310355802249              0.7608572064785099
H              4.925945092066043              2.143114336992068              1.5202528085780287
H              3.5540206555557488              4.5772113197662945              2.490131460904905
H              4.144142533679787              4.637931167195757              2.892538066823391
H              2.954894571619419              2.418449129752828              3.425942313874048
H              3.192116428433226              1.9156346228175989              4.072256899550283
H              2.482442213888237              4.311202595237921              0.5684591615622666
H              3.0086829840688005              4.126749476771724              0.032487756681204134
H              2.1635756903330767              1.1813542713876708              1.1468282406116088
H              1.6114939667523207              1.4952652500614054              0.9061889285428963
H              0.7186286834427389              -1.1819400211665754              -2.006441081630732
H              0.2979315253887065              -0.7961337686006886              -1.6595937416135182
H              4.863477339696945              2.2106505920477413              0.5910538845157826
H              4.956632622909396              2.145977108432317              1.311055547684514
H              3.622073152418909              4.362731488806891              2.8190417385835254
H              4.30607517125764              4.533423702778381              3.0308599919965564
H              2.992993930227564              2.1399014395684763              3.413062462711974
H              2.892135073281151              1.8392342215940485              4.060632367516134
H              2.92921818167016              4.613855705517731              0.48235507565965346
H              2.801487750184951              4.038271922104799              0.08813170325463
H              1.9986070717692643              1.4474150570088142              1.1098991742380873
H              1.330310567496864              1.8322397937299646              1.0252146236327673
H              0.5511719776332533              -1.260839052725178              -1.5555914899654921
H              0.027689996060195798              -0.7971936159500422              -1.564503839957919
H              4.870785576707743              2.2120317503615787              0.7404721620843389
H              5.177145780662689              2.1278007396425593              1.3719269452867149
H              3.8342952494180533              4.3820214477852355              2.8363088241436594
H              4.480737116859715              4.709247951033474              3.132184800660478
H              2.63856002809677              2.4565829081394983              3.6573999232700642
H              2.8921824975111936              1.9628353139966812              4.182246086964858
H              2.9261620337657              4.58272859067383              0.5841817410629819
H              3.25657705342659              3.9943421485547046              0.3797355551090417
