72

H              2.167717715350093              1.6001543864165948              1.1420911074589173
H              1.9297319132983386              2.2064361076472863              0.7235685932902084
H              -0.44870197070668427              -1.2416259231447866              -1.672443201507045
H              -1.1092831251351825              -1.3559371822138566              -1.8352783008652336
H              4.796964733356318              2.2813744990626965              1.285981543396923
H              5.04586473186547              2.9130334786048238              1.3969686289413838
H              4.542010296108879              5.011456401015929              2.3813668795940646
H              4.530930901600607              4.588498867780618              3.053073440212701
H              2.578424515770214              1.8992861218990966              3.8629098968096907
H              2.8792634070200065              2.418822905641115              3.2860420264049592
H              3.025891745263039              4.449298151364682              0.23075768291196777
H              2.816863063545514              3.9075091456475497              0.6938830972717167
H              2.467110357568799              1.2828236740571002              0.952072437693979
H              1.8293479629338452              1.5896076251292677              0.8677698884710622
H              -0.5450789475063519              -1.1086810142435097              -1.9905786700476955
H              -1.0324750750383798              -1.717891195448529              -1.989104144816609
H              4.984003090290699              2.159393957919087              1.247011887544659
H              5.148297415492563              2.9026863527790816              0.9495608755422783
H              4.322815663858787              5.046208689436001              2.6131412609208358
H              4.056565630266158              4.506797893849417              2.9838619134884716
H              2.4247895482803896              1.9946019277770966              4.000869127642966
H              2.6281864262314847              2.2517327476772886              3.222869268115397
H              2.786193976270282              4.136621419732104              -0.037577525554644324
H              2.7214803167613906              3.9173688989041637              0.6322188178818621
H              2.4679024274133408              1.414516295889086              1.056811031239407
H              1.7914145434416855              1.758078441800107              0.8669871384168533
H              -0.20720815911065427              -1.051348121932771              -1.926562786733855
H              -0.8086387756561139              -1.520510475564112              -2.270279580277266
H              4.940152727893813              2.306819180149058              1.488590452685366
H              5.336541053861271              2.8389221911396403              1.1214035490529506
H              4.245624188903364              5.02319603998162              2.445083037644336
H              4.250122236335305              4.527631362901513              3.0430570736101363
H              2.27873559457594              2.1103770698465167              3.7617869991489017
H              2.9954970073078324              2.267332320587946              3.439639512677704
H              2.5641811526304394              4.322557115252823              0.4835083951928409
H              2.870033174994083              3.6495097980772506              0.4318514487752238
H              2.4429373504417966              1.323335499783522              1.1141668010203514
H              1.8497424830033828              1.7534189561692712              1.0690526072455646
H              -0.10489815630363868              -0.9425425475517883              -1.8183680503616506
H              -0.7937766635987356              -1.2853978935097616              -2.1339374087893495
H              4.525958755804451              2.2223219458065926              0.9791830340871239
H              4.8971120120272955              2.8443017105998374              1.1554485991019159
H              4.1096130480906785              4.744433777757485              2.528986937960188
H              4.4677338042903205              4.7323483875485195              3.1160852908458945
H              2.775390324934909              2.184878243958998              3.5667760612471984
H              3.366718943186237              1.9981150904737648              3.146409727190813
H              2.8204694270295256              4.49165675760907              0.45761524355407013
H              2.621752532702221              3.7692525354463675              0.26040319967819936
H              2.3286599956585263              1.8714555988296917              0.8731133965145715
H              1.7507138804964517              2.07112427810935              1.2420068975317353
H              -0.048590329064559554              -1.2006314219005843              -1.8500146063181429
H              -0.7331675968280922              -1.140673736244155              -2.0620273314494124
H              4.558747289668345              2.0433695470758617              1.1169160210879163
H              5.05805778708049              2.5004258164609867              1.2679705595951947
H              4.043921767042386              4.965218157250383              2.7073467901065102
H              4.4101759740295465              4.4545075316079              3.0223926380485735
H              2.8544610527510437              1.7872307123848108              3.6056688606658427
H              3.206915235402606              1.5237759718515604              2.899046121617752
H              3.03112720402256              4.492554202402785              0.43084502814572806
H              2.9019896209629574              3.7877664879143174              0.45355196452980573
H              2.104321955015501              1.6125653049686737              0.9985458887661328
H              2.04765336132138              2.374105740279196              0.8694932207899709
H              -0.023409680484400255              -1.2335766093543576              -1.593543994838399
H              -0.6364981558064472              -1.3682384145409205              -1.8722333033270009
H              4.92380040971289              2.0134661434546337              1.649224835894687
H              4.891285843965607              2.6840749717234273              1.1964366066850929
H              4.534641551886616              4.771680810364959              2.5762387085447416
H              4.439468890761685              4.3405674740168445              3.2467572419342607
H              2.585319824126427              2.396383622567124              3.623387903173789
H              2.946207302915269              1.8041968823077372              3.253613054019347
H              3.213681680563058              4.493037359794661              0.3361479991682244
H              2.9830894502854344              3.8198159400814777              0.3331245833087132
