72

H              2.4877375791266254              1.6252937468038249              0.6632923661343035
H              1.9094497851688406              1.2785531434358492              0.8680215195820666
H              0.7355402852321775              -1.082223168999185              -2.2034322072012387
H              0.5162152225321203              -0.5471455771201705              -1.8692462534191754
H              4.580492966077707              2.3217313599731773              0.9310123028011271
H              4.79898646380459              1.9031281655095886              1.5621156527618516
H              3.5028125357146433              4.610839598630041              2.7167345648723855
H              4.1261405597292775              4.381507876327858              2.9727845109727014
H              3.0679041377791108              1.8194933182855995              3.4220309394606825
H              3.0231826923892675              2.0934521847397334              4.085422736370207
H              2.696370375840441              3.852127812177769              0.5650563160815649
H              2.7558729198598293              4.282902167851505              -0.022565209475616563
H              2.3008546425557133              1.5462946934425152              1.2329182241082852
H              1.7897543109482121              1.496186111747447              0.7794451639296401
H              0.9921762382333317              -1.0966617519180335              -1.8532514811915206
H              0.6898084816414419              -0.4266137857373972              -1.6063582007319264
H              4.792165039757978              2.4123441810778745              0.8415036441107746
H              4.80836407674271              2.0226291262493095              1.4092231053522284
H              3.8857556849191437              4.32426436798126              2.943598496495822
H              4.52907993507364              4.634247314673182              2.9283475928335023
H              3.289840997945483              1.8239316303798874              3.381041692126338
H              2.891620317816137              2.1980416639629246              4.019575187211203
H              2.856555734394797              4.27856736506025              0.772684806879353
H              2.9183814482951806              4.253278575522071              -0.0039417053035458675
H              2.035625276626893              1.379399201854779              1.1683882116265805
H              1.530602093917914              1.7414814576608424              0.8136677060499571
H              0.6150373325732876              -1.1504093875931822              -1.6015448825815843
H              0.30255631889253726              -0.4773944935103603              -1.4889085893483707
H              4.614181855024975              2.4543136372526515              0.8228714875744305
H              4.838426312920517              1.858416150158866              1.0707038664857185
H              3.7507843026279977              4.438963860119269              3.2062851994994137
H              4.490339702234352              4.681494123929978              3.032451089017062
H              3.3596962635595577              2.2035757265800475              3.589167327259166
H              2.7228436405213277              1.9699302563592418              3.9794476245654535
H              2.8828508841256673              4.2887382177320985              0.7178146395605586
H              3.2102374454150326              4.14331595875864              0.073894116870356
H              2.3264635085460634              1.1951942523786014              0.9643502184093978
H              1.9181381440151657              1.8213008974217515              0.7984930546966335
H              0.6497441305304459              -1.1816083139593991              -1.8402427207423475
H              -0.043800894810810335              -0.8496941308816314              -1.628676368839312
H              4.579217113512535              2.149596272105429              0.8875970817712803
H              4.863226497049458              2.2604999674594852              1.49710248562941
H              3.767041674429876              4.526411105576411              2.7674423217689608
H              4.259654078808164              4.796781641055058              3.2421767826653967
H              2.867585730900097              2.4266986300953213              3.611247391470686
H              2.6113751910143144              1.8260968734599579              4.065563046115208
H              2.943745254767485              4.157064814580609              0.6585675902387705
H              3.315018255414318              4.002173502666064              0.05933453705387146
H              2.5064686693237914              1.4038030493060591              1.1077743882086484
H              1.9237512402969055              1.3275142469287304              0.7311047415127926
H              0.7273106246126001              -0.9567574414053678              -1.895466637924371
H              -0.046149064068268096              -0.7772823071373314              -1.7302817654314333
H              4.747967921077927              2.4354829178123376              0.7561939279803256
H              5.018748038879449              2.1066181143508884              1.417368776271204
H              3.7598690368242553              4.542032360260111              2.7122668388734703
H              4.235199015143218              4.952137856397566              3.0415031936996373
H              2.651768416403251              2.484226600614344              3.244908045690403
H              2.958583143397617              2.3921821793695464              3.9231510466049624
H              2.5254890954952227              4.044278688487123              0.7766121908677488
H              3.0612339725402453              4.0894567332703256              0.24115601469486123
H              2.641983099049434              1.7400076710447763              1.0187998380854109
H              2.0199464382349417              1.5369429204199672              0.6449704717224917
H              0.6520012663563693              -1.025829940412569              -2.1120965712290656
H              0.10889193262497479              -0.722752983392628              -1.6735208441982645
H              4.473784289354876              2.456535243361354              0.5757146643297923
H              4.873402351509956              2.057084687020299              1.0481053927714874
H              3.470994182586518              4.399034177865842              2.682496860844907
H              4.123182733148185              4.7763118811248955              2.9071570299889316
H              3.0331894127097203              2.5451381380254166              3.317278240854436
H              3.024777243831229              2.20601805781108              3.976092316680437
H              2.4496263841199046              4.101808678420613              0.7594113027937885
H              2.851396560261127              4.09986949064834              0.12705782832333218
