72

H              2.380250966021015              1.6083984269463623              0.7739275533696873
H              1.6199800696989493              1.6277894582712564              0.7171200851130182
H              0.14404809232776833              -0.22594595085348143              -1.9144439218040132
H              0.4647575571368715              0.35148014397234395              -2.379275309247947
H              5.220949771415998              2.2434274241516263              1.1388173435125093
H              5.002403729356974              2.6874827262332985              0.6018708068757125
H              4.538620807617579              4.675648911250067              2.945611973551753
H              3.959648101292698              4.192379057504359              3.0360341649767104
H              3.430364957548587              1.442841941280804              3.270309063229511
H              3.2630072763602005              2.1609589611512345              2.9791632507968098
H              2.9693947363658464              4.482392403302779              0.22329680540633398
H              2.703077410096519              4.53800872769859              0.9454426648984949
H              2.3317372235556633              1.6635686517091604              0.5476438730560318
H              2.01464137031473              1.949659967575837              1.2112168735273796
H              -0.0682801048569117              -0.26025050958781376              -1.7427483938751243
H              0.32504183763854005              0.13281817921694816              -2.248044722766735
H              5.3320540597408295              2.2853041883853185              1.1678621538774632
H              4.852983010111672              2.5942203309097662              0.6850982989568647
H              4.493704881233018              4.400839932240086              2.981554672250138
H              3.9777533949737824              3.9301535944293433              3.2166155415532267
H              3.311813271386684              1.6738049330943503              3.2634718844067145
H              3.236082640726512              2.304577104686474              2.8613847790632585
H              3.250318213758044              4.28210925847255              0.15955530832369
H              2.6988034131420324              4.428288611611325              0.6172396999668428
H              2.376914898676807              1.6573491572633874              0.6562157842219934
H              1.859997151985616              2.020249461241166              1.0410293097674876
H              -0.20343355640628866              -0.16966936743570593              -1.7356703674200515
H              0.060737498261487444              0.16263566228885792              -2.2072467129039524
H              5.159832703910961              2.357500799250895              1.2889516710471336
H              4.940464524044979              2.302039159641009              0.6156930525652277
H              4.298848772032285              4.418203532226705              3.047581255344245
H              4.064570084145409              3.771448889470752              3.252789753731684
H              2.924728874918138              1.6993469824029368              3.326967196782786
H              3.5055251735737727              1.9194371224463433              3.035248380868869
H              3.0888869956165155              4.227831065750475              0.12223694329340734
H              2.6924441375102055              4.331908474665141              0.7216216776038941
H              2.259593091732339              1.8485966436419694              0.588286389232547
H              1.7406015646128297              2.240603876456221              0.9957839162200893
H              -0.04560930091913184              -0.2648234255662295              -1.5191445590790762
H              -0.0459746090176457              0.336800183544927              -2.032463022413258
H              5.149957271407631              2.3004189070496257              1.1129528781268396
H              4.791523527312615              2.1735332206860094              0.4244662200556384
H              4.097688951149542              4.537749316782423              3.138008080028232
H              4.226238625148934              3.872913967613743              2.9304528795756246
H              3.1254597291279875              1.5524495384307804              3.577552051889796
H              3.3450446481468803              2.067290144222326              3.099927439281943
H              2.8172230552607735              4.398726550636543              0.1541865291184945
H              2.863807781354423              4.608988418865809              0.8205458799431862
H              2.2593026234404716              1.801540764161331              0.5093022588908551
H              1.548646533284302              2.00609427704956              0.7389255112007375
H              -0.27690176820106              -0.3212494662628417              -1.9410440695311453
H              -0.10660390581625664              0.28916571610730013              -2.2328777080232096
H              5.202363374318071              2.270793394235411              1.345947252057794
H              4.641723002220149              2.2843083002082105              0.9701556346106377
H              3.9558601542182212              4.868136283291523              3.033849694511178
H              4.01931173417462              4.137417712919103              3.0553834138101332
H              3.1368810127428834              1.543901257152103              3.0439583977546385
H              3.524798591063993              2.2318057439277568              3.1808674299495965
H              3.0421578282961224              4.321698541845987              0.2605895102513342
H              2.699550793930854              4.903072952961631              0.4190312300993836
H              2.322806887876314              2.029141329761552              0.2316179909316625
H              1.9660275514302874              1.6278247076727053              0.6957738797934129
H              0.10031235707540412              -0.36132569933616226              -2.356749090077933
H              0.09043246516417519              0.33428496292155274              -2.375768717826731
H              5.3007118349114295              2.5845242832072213              1.1377022936202312
H              4.551475167269089              2.3012079266741696              0.9961400025807929
H              4.038986268204794              4.934160119130192              2.9591218115517046
H              4.002922931688345              4.237708480662908              2.7862639248346763
H              3.166223903831394              1.4337429286652603              3.3142710658331125
H              3.2848454085705927              1.9661819610546265              2.905087479994045
H              3.2134605757243              4.208943947540899              0.39447839038483246
H              2.6412545164568675              4.675255287246114              0.5041044702943261
