72

H              2.237212699122189              1.3100903052308333              1.0003361998696723
H              2.0613621821115737              1.9933688228539048              0.8992954845310498
H              0.8830538502700528              -1.0545648714809799              -1.7266503321805415
H              0.362156109195308              -0.6456983735602784              -1.7042862177028753
H              4.713992181569638              2.445680695165493              1.0531712968643867
H              5.134615407838404              1.8844891256843028              1.4087895196181315
H              3.8282443540559172              4.715599664251444              3.1750919701919584
H              4.5187793450369655              4.754352259412117              3.0279211556977677
H              2.9263156709553              1.6826378999058789              3.315559341654429
H              2.8074777863322087              1.9597313417195097              3.9040876120288783
H              3.0976774663569278              4.1743932397586025              0.8286814684268695
H              2.975552196675079              4.186643211537532              0.1464078183970242
H              2.6979873372033407              1.4968300737490043              0.8819590202351671
H              2.010279557538795              1.4875392022384724              0.890397685320147
H              0.8573186220338301              -0.8516032511677492              -1.8231774017464166
H              0.08645028283642989              -0.6991846973664129              -1.740894723051327
H              4.8525065349213845              2.4352102985579513              0.9478119838722827
H              4.935734226703448              2.0362922862979342              1.5128182458557555
H              3.7914818471899125              4.595723284364033              3.0307213795513746
H              4.453696442270472              4.908798618563625              3.008529645509798
H              3.159416675128532              2.1925749275352966              3.031877418058123
H              2.846768314154094              2.289953912643282              3.7247666211402315
H              2.665299555824808              3.8717259769984005              0.5970732448985828
H              2.8479302038001433              4.361094083083151              0.09853348568594521
H              2.647414472212545              1.7149724540895515              1.1038742181445522
H              2.1922645723549454              1.6957634653740512              0.5245318687072722
H              0.6819466260550814              -0.9714714814926874              -2.1564079453468388
H              0.310864685153514              -0.4119270375671659              -1.8825052552911041
H              4.669557276129646              2.5909027597973986              0.8723190096409862
H              4.889780446163389              1.9975610400260662              1.18539047266558
H              3.5856235752652403              4.599235789118753              2.7632343369668995
H              4.336559444537556              4.853229972011345              2.9618347388496225
H              3.174744230528128              1.7909834379401879              3.0403482062606164
H              3.19954159569282              1.9198535797924117              3.763887023678376
H              2.5264788215038094              3.8442452979349495              0.67415873472642
H              2.6457113050658516              4.34194869090531              0.16351018816879398
H              2.6314714327020092              1.601444112130656              0.7859867009697779
H              1.88972972274962              1.6262408508923627              0.7655028453134828
H              0.9976282590460145              -0.8940270252305103              -2.0393316342482257
H              0.8632429903801738              -0.2892984702317161              -1.8005396416486312
H              4.729174000126081              2.4604603705728274              1.0831466521499418
H              4.6527434102877026              1.7874306116941725              1.2674539536396752
H              3.6575148400576363              4.661984437746468              3.0889006853314034
H              4.365078257855315              4.3712171742167945              2.8643199600596163
H              3.174984260354008              1.3765598093436802              3.453817086803224
H              3.117630183829134              2.075717451247921              3.66022439850206
H              2.638561671329714              3.8830982638166396              0.655012927340235
H              2.59185816783058              4.24770720930092              0.024153762360449065
H              2.303472683859003              1.8978285975243214              1.1370665028668303
H              1.6882286052112256              1.6832613786679431              0.8021748015065147
H              0.999807497959428              -0.9699162114758898              -1.6769699387174661
H              0.8519410415902009              -0.1691244867253685              -1.7061744263699334
H              4.865343827384216              2.5597894958981104              1.1052180924921287
H              4.739232490470649              1.8724668542823601              1.471511229758305
H              4.026596561574571              4.586361383195863              3.1425898833014734
H              4.678258275914469              4.569013473526349              2.83726297901103
H              3.6175794395201484              1.5296118599097512              3.4895048975216
H              2.999453618020279              1.9899791706722056              3.6706837124393483
H              2.8668692057593184              3.8895217770949473              0.5527775224838493
H              2.936711866699411              4.54275902332571              0.20660764553309938
H              2.221668966413042              1.3379323230090647              1.1646354012493825
H              1.7357264338871692              1.7072338313218152              0.7592570857740928
H              0.7557826557193221              -1.0039030391578745              -1.6895688852440491
H              0.5469292567845926              -0.2227293139776923              -1.6127634185323663
H              4.657899345734898              2.552990428219699              0.9511692445113085
H              4.661272880770416              1.8566351480557353              1.2737317504534456
H              3.8223443046003958              4.641495240299849              3.3061591505699224
H              4.586541410089739              4.637609818262805              3.0991116431351378
H              3.5399864357427777              1.688953097586456              3.471298605906871
H              2.8330745728887474              1.759267510121959              3.6170164308001382
H              3.110842109929781              3.8176023387893956              0.49505605318605617
H              2.9640412938608787              4.416029800831345              0.12312761169198597
