72

H              2.2412384853557374              1.251418917870925              1.0447765752984683
H              1.5775785567524845              1.4851384041505908              0.7656446135601065
H              0.2914152987080013              -1.1654216753753561              -1.8743701189205868
H              -0.4296040760419982              -1.1058003152782097              -1.5973762000489784
H              4.893969980560359              2.003086571131161              0.8854046546177988
H              4.7829738920228175              2.564597009894799              1.3774179779616706
H              3.9656184817648867              4.660393370899649              2.5243882177581463
H              3.9817610583788325              4.820183764086269              3.2379437374893523
H              2.705496919473875              2.6142049320838234              3.8989677278030834
H              2.45799137921207              2.0113003020920575              4.007823736972272
H              2.8741433954477063              4.283568201550363              0.32319119692759235
H              3.421700815318997              3.8438981935695735              0.3836503082990336
H              2.2443858340432965              1.292043333327967              1.2808744675254324
H              1.796321255195686              1.4510484400185717              0.658416833768403
H              0.34996856868192416              -1.1590475838547871              -2.0565860524692083
H              -0.2860504017122078              -1.0007915532516973              -1.6927461718698815
H              4.847968398047663              2.3506364423026405              0.6715826283176486
H              5.223980089020036              2.4669953530648057              1.3189450850672386
H              3.808810969722977              4.676830490877746              2.3520289336986964
H              4.047232496766067              4.92682870219264              3.0447546120889357
H              2.2460199030981025              2.404620818078049              3.6353184759744277
H              2.9225051441416134              2.4792310320784536              3.9739385782418495
H              2.6736946091742775              4.3811531016229255              0.7071783372810334
H              3.061771399662557              3.7784772489632243              0.5439862734189554
H              2.366193736443527              1.4405583510533948              0.708262540505407
H              1.7421177647748194              1.2979457036014415              1.0996281397667902
H              0.41436761890534624              -1.0206900023322847              -2.0056869474130665
H              -0.2188111732076815              -1.0354996496299045              -1.718960695165533
H              4.612927761069383              2.258105559202761              0.5088873560156559
H              5.0571399310683045              2.395943512400345              1.0894411102893173
H              3.470934745519621              4.45499767234026              2.5512316269966187
H              4.014064743870244              4.69194813436821              2.949166324024041
H              2.517706222592543              2.7550229363861893              3.5556292040904944
H              3.0900243361161377              2.428788420717807              3.997865152567052
H              2.4467185586239277              4.368596814185802              0.4641764603658916
H              2.8995231796914878              3.7932420756199092              0.3490105619809837
H              2.2041456653682685              1.7671823323926987              0.9854608091940437
H              1.7795175782489137              1.1937461801572644              0.8858724583392604
H              0.44366698653728354              -1.1267591774568393              -2.194800802511575
H              -0.022898529912921694              -0.7968003326727354              -1.890896587630204
H              4.719497771767836              2.1722385081590145              0.8244417230148774
H              5.018288617288569              2.198857060004104              1.4539631439773937
H              3.550198373640987              4.578333356406958              2.4201940656800094
H              4.04884010488934              4.595954318647649              2.98599691157517
H              2.783932097963145              2.3057098904146365              3.5671939916110564
H              3.1815083438531566              1.851265968094555              4.004347302161244
H              2.4568485593466227              4.386993058302729              0.4537160793209842
H              3.0526725025081975              4.046835164049822              0.14504214265059454
H              2.182307736245521              1.2218052836307125              1.2643060936293076
H              1.507260453824807              1.4963449284816264              0.9203917578642962
H              0.7432837297624632              -1.115121697106295              -1.9941863488811369
H              0.2461068419055488              -0.6497978245742456              -1.5521872819327511
H              4.897472812542354              2.0980964243189333              0.6450434528535305
H              4.932052054540894              2.1347054298033865              1.3902250768195321
H              3.6722747798206363              4.385291159191728              2.8229230644605727
H              4.366358197023543              4.637438320938876              3.0408197981185823
H              3.042471299060445              2.279966077182442              3.2704949260065073
H              2.9597705420170786              1.9340970344163495              3.945780720218203
H              2.85241334672732              4.722426615062288              0.44713457736082285
H              2.864621839122214              4.040605542553823              0.10905092300972678
H              1.913512117663814              1.567266777553928              1.1917800885162249
H              1.4035631494196525              1.9755308217554761              0.9308730328796727
H              0.5257245309565197              -1.266393677349827              -1.6062875287187313
H              -0.08840100785650125              -0.7779666485010084              -1.5082108063737234
H              4.770263801324398              2.2472087444875832              0.6489007089658209
H              5.104217618372007              2.114863064070671              1.293482255677786
H              3.8097492696991195              4.523410886484189              2.8546592190631244
H              4.41528363698086              4.7478137863929195              3.0620064352617313
H              2.787328219707137              2.528391523938896              3.6568658727960273
H              2.9453624592026624              1.847630069503158              3.995483612953796
H              2.965911214294506              4.714420516463106              0.5190350248533061
H              3.258901582658102              3.9897552947132553              0.4164610497000272
