72

H              2.192523754952296              1.5429679261291611              0.8820132398842694
H              1.6975500533293446              1.9358658261143002              1.3285574627663252
H              -0.16667018137738113              -1.1186000170371877              -1.748604862086329
H              -0.8362260323669154              -1.1224943248492605              -1.6422958363417695
H              4.795152871308225              2.0023436219530875              1.0891241365938609
H              5.068719470526538              2.6646286988446626              0.9783421492236021
H              4.30613553545366              4.923041766963273              2.620721605672707
H              4.328628351426396              4.720903783325098              3.3075214974633655
H              2.285120484905503              2.1013352888564327              3.792179341269989
H              2.84115165851505              2.269904833221725              3.3170410099316934
H              2.9995974027338526              4.338884953175613              0.40794024289400516
H              2.8772973834047018              3.655408852938841              0.6527771304545832
H              2.318564168149509              1.9684818479568902              1.2334897268163643
H              1.7881793731699378              1.9203987956365218              0.7254603929276195
H              -0.21386881782153186              -0.997795706639958              -1.7810997815461485
H              -0.9255533904919635              -1.230793600832601              -1.8018149143625406
H              4.641227458900293              2.153501843471122              1.2881909999981627
H              4.915423795639914              2.7716680454814258              1.0999944495461886
H              4.220762063767788              5.028892213196709              2.373809901446805
H              4.208032404549792              4.767213104130814              3.059959890025346
H              2.5317152108321066              2.3455642020689074              3.9407367831830946
H              2.9457239454996857              2.3627101654603333              3.3505679023134003
H              2.882316964707668              4.323708321746859              0.31290870565296464
H              3.046700241017268              3.7057718651243112              0.7173219440768603
H              2.465351127436975              1.5079520559289739              1.0722917487703116
H              1.9002306438354977              1.6833849666544614              0.6897502315879076
H              -0.12093041725422393              -0.9168803029125706              -2.143922630178081
H              -0.6728671495787576              -1.3563389059476616              -1.9793379471501003
H              4.6627039910352615              2.0995428124072166              1.2369129682540632
H              4.977388950878138              2.7312547798272715              1.3172371957756137
H              3.8345281139881866              5.1307173021529655              2.4280657047006415
H              4.174761844140513              4.626709564250058              2.876879962082898
H              2.673982292623246              2.3438341422137965              3.5717300047006826
H              3.081801294821307              1.8978482349268997              3.203672704418202
H              2.7803792280388397              4.25316883428908              0.20905284191496998
H              2.721775912262207              3.609479978417055              0.5733344877554192
H              2.294449192462336              1.524471421465919              1.0568965484524722
H              2.013115927066649              2.1520032358014833              0.8815835719192272
H              0.22325798617304657              -1.1790515457193467              -1.9387889610996818
H              -0.3201593004015206              -1.5258492491963604              -2.0937837262350545
H              4.833584687930812              2.1315961768241127              1.229280735254587
H              5.257780280818231              2.8338448241679264              1.1990294231514025
H              3.9042117253508186              4.802992402504566              2.5243910798873825
H              4.395197425064738              4.479722935988212              3.0590302343394855
H              2.5279539568339304              2.2696241701080218              3.534438368719641
H              3.15463262866114              1.8976974309893326              3.196764080586544
H              2.812242347509023              4.52128527101704              0.3143705288467481
H              2.7227246526567592              3.8326996628260166              0.3730175414934556
H              2.1972931930795547              1.3935248203895982              1.0103901788564817
H              1.8912545964759777              2.0929424717994336              1.018371518956134
H              0.016500529807841887              -1.2827222674716172              -1.6327144117969252
H              -0.6393919624128284              -1.4353848548115655              -2.123679159340932
H              4.984991298401974              2.0694160247384854              1.1498418325791315
H              5.02581684809874              2.7859175740917883              1.3757886942884778
H              4.282590461723972              4.659458109903778              2.5421328971204793
H              4.445323385385171              4.554624828228388              3.26766654567396
H              2.5832223774786294              2.355410207522848              3.5399065882988032
H              2.9567571960587675              1.7749756438299165              3.6383094491124166
H              2.6977407554222697              4.509638094133712              0.22267813585738042
H              2.929447386413397              3.794165866820618              0.2057223563942978
H              2.425332859276907              1.5844712338647864              1.1282615200595014
H              1.7479049330500593              1.9266322544772176              1.14207074476071
H              -0.18432192366785174              -1.3396382812429484              -1.8715192720133846
H              -0.9263620156202812              -1.2048762743122465              -1.8757188853742444
H              4.839124189532244              2.198532936811799              0.9081594856779021
H              5.097905696875405              2.6270731364356545              1.4244783617990526
H              4.521350746964742              4.848457531919762              2.5316815293881385
H              4.394281442885067              4.705137651557813              3.2801433192075296
H              2.3695298760151378              1.7507366408914824              3.8445098082518
H              2.975441829600032              1.8772586328601686              3.371774881659722
H              2.900337284566638              4.514543884002735              0.25152828809611755
H              2.8551592536108372              3.7917246006646343              0.5422009738515101
