72

H              0.7460010478662701              1.0042276388690006              -0.45714739523778336
H              1.2437971113830801              0.8450390661404119              -0.9272808701105589
H              -1.0448755622103967              -2.4226559659545033              -2.359015923643164
H              -1.7105701057859988              -2.593878968699637              -2.2826794035964246
H              3.7634460369612346              1.1184343912311758              1.3973745141991598
H              4.18375813310661              1.4449002415970975              0.8978104945023577
H              3.6048563721625997              3.878244750669531              3.1180985998986324
H              4.197599783895183              4.198762051791838              2.8586298938410284
H              1.9688976586483602              2.253979117963593              2.823551299219038
H              1.4763315131724364              2.3734925427801916              2.1854864959420617
H              2.809295964375356              3.6478465981271015              -0.11799631715584429
H              2.20585624285386              3.7946554986008825              0.3045731697016147
H              0.987388076285681              0.698781698966326              -0.5617627896721196
H              1.6193525326871459              1.1117381185882218              -0.655460053667071
H              -0.8774710781889355              -2.556197238279266              -2.249262157841399
H              -1.7444156797774413              -2.613503498591343              -1.9615174380003455
H              3.7356687235691095              1.0195551183475366              1.459667965276966
H              4.418683845925878              1.3698389741026138              1.034496836819236
H              3.7842324031155883              3.6686146471602386              3.1314733177956997
H              4.416995181140991              3.99390471639523              2.995253690142921
H              1.7997265669439988              2.0546207427828063              2.32661685902743
H              1.1279578653638112              2.4598108162525616              2.4611851168473016
H              2.633612390800936              4.24714127861231              0.14156653652902182
H              2.2260957035328985              3.88823313486072              0.5891757546485689
H              1.1974606101711514              1.071786432313973              -0.7143171634291273
H              1.4998813992929454              0.9641278924570962              -0.06692707711984662
H              -1.063852982506642              -2.2818403646777754              -1.8890226787717757
H              -1.7583159922453635              -2.7328073831452824              -1.8468562869448202
H              3.8592518898331356              0.802516390728392              1.4401660388533823
H              4.322792400195024              1.3286066287303653              1.3137622495507706
H              4.027913871642298              3.6034615360086124              3.2354705033653324
H              4.436225706878391              4.100335397809125              3.0230752174001805
H              1.211804017857672              2.021292968591924              2.919925619099644
H              1.3268588210640888              2.2904142441861928              2.22762715755718
H              2.5132238031247502              4.07726875900358              0.37131502519403203
H              2.0046043558615056              3.6279384023053938              0.12091282485977049
H              1.3689175558226494              0.7098344954279479              -0.7282654226949172
H              1.5436860483639196              0.9912974918542078              -0.0718793689820322
H              -1.3607656635308023              -2.420443099308612              -2.041972980194764
H              -2.015794154365522              -2.490077577627321              -1.9364801019707025
H              3.8287510996824192              1.076084848930505              1.3215102528213454
H              4.473159971815122              1.3707582242957628              1.056495174848794
H              3.7626637881701748              3.9383241705093237              3.098402307110708
H              4.4147475242660414              4.1300878531014815              2.934407461602419
H              1.6580732155016027              1.9001444944355403              2.6751515064105114
H              1.4200503257448454              2.412402657936778              2.1210605993433944
H              2.722182998376622              4.084390209330947              0.23926469396127292
H              2.0543999618640263              3.836276919434041              -0.09545781781392174
H              1.2372671439250573              0.6370081457287029              -0.8040489342492533
H              1.4472715528491429              0.9603189954934614              -0.11406002232264797
H              -1.214369320551977              -2.33664580326831              -2.228481258998212
H              -1.9816714881960782              -2.5614290838218228              -2.183997210952064
H              3.8589063732111772              1.039781057500092              1.2735419072898504
H              4.5133101582646695              1.2488288149408802              1.1733237601856674
H              3.641691607112375              3.6140749991091976              2.9633230952975933
H              3.950946695036246              4.214543505484194              3.341538210964957
H              1.4723532587136228              2.0749061251936323              2.8296879682282423
H              1.2422522521825166              2.3964182132540253              2.2273042968018717
H              2.645948654392003              3.731146663084337              -0.4043140260147246
H              2.092975562475213              3.783427703720443              0.1436403629137386
H              0.9295152291581238              0.7176014638501991              -0.4740704977041092
H              1.6216385510073197              0.5954103797906297              -0.4385390465848425
H              -0.9469659008953522              -2.4040153337343315              -2.2934351874099734
H              -1.603404882751579              -2.666309100336303              -2.23524564647939
H              4.069386909714308              0.9375433209405778              1.5829575942486265
H              4.511625065616717              1.473246659809974              1.178110988288935
H              3.6278132862666514              3.760688972126709              2.9315657358588694
H              4.038344320188345              4.328088863211616              2.970294347039708
H              1.7503269227446825              2.341316969174558              2.8411042078790625
H              1.3997804542812027              2.2995186338775984              2.203008070022175
H              2.7278265471474255              3.629884109922383              -0.21665230049086615
H              2.105946403516793              3.813837429261242              0.19962997815502845
