72

H              2.229159982171705              1.6776634865270008              1.1375456520691338
H              1.9879617528227178              2.0825067386777074              0.58521843657431
H              -0.42683492666604284              -1.2424407890138631              -1.708074363620995
H              -1.1360438568791686              -1.5211857835017244              -2.0117196203661294
H              4.8555634917791055              2.208523082962139              1.4056550112895168
H              5.085421658542556              2.963709859301696              1.4757196432733144
H              4.519293921359606              4.972695877949259              2.413750593571571
H              4.430616451031742              4.4871029765625              2.9317075476726555
H              2.610134618479371              1.9370513595374208              3.8910656617150634
H              2.9004647416326126              2.2235137860964613              3.2860640355270494
H              2.986465631524704              4.440986984378081              0.12109600982578787
H              2.8493317905307105              3.9641115245884437              0.6411163689245103
H              2.4488944844273783              1.07377124206029              0.9227716951764681
H              1.9111875171045003              1.6693673730085592              0.9028834805955473
H              -0.5104301890838473              -1.1456403028769493              -1.9967439985293987
H              -0.9701928423330403              -1.7363570314061756              -2.0493572117364454
H              5.062527296449068              2.252585396516188              1.2729423680461465
H              5.197092772040176              2.881189324318067              1.0636444436484256
H              4.405218632628403              5.021236351237124              2.6185442644629937
H              4.147146435533446              4.415915112124459              3.00845963053895
H              2.40185856783566              1.9697052020431292              3.809604734516955
H              2.6777060395487418              2.1936756570974514              3.267464663103521
H              2.7891855150511247              4.19211089452038              -0.054338690664470064
H              2.6040714123059634              3.912306851074048              0.6357400545480328
H              2.379933907350276              1.4053413059779623              1.0479044078179571
H              1.7971279527852906              1.7908864146462773              1.0139962456149352
H              -0.35122447099916154              -1.1598218993210734              -1.843906882325481
H              -0.821426242927055              -1.4853515189208983              -2.209039546695981
H              4.932416540643198              2.3540718777198575              1.3709851909896604
H              5.292110850748523              2.8504823340132788              0.9963050882608785
H              4.351310953231662              4.927507492243553              2.502967464112037
H              4.315863053581209              4.543727402477534              3.128635250825984
H              2.3854551255814154              2.0259060613962174              3.816057623069951
H              2.898615796631529              2.334421864683881              3.4209286456241212
H              2.595818425981884              4.416313326248913              0.4760270646557975
H              2.8892102971901177              3.7695045625618744              0.4071291740574313
H              2.476989090333668              1.3851871404692153              1.0508162836842236
H              1.757745251298518              1.6388837572419586              1.0665325644781043
H              -0.31964291660360616              -0.9744207572520748              -1.8515770569632863
H              -0.8898502436030662              -1.2241494521539655              -2.1251378907425535
H              4.570694457054754              2.1274933696939473              1.0560562617656208
H              4.909362659226897              2.8116834499353094              1.1529895132460375
H              4.151170780552757              4.8520968323958975              2.4640484956031123
H              4.447455762393455              4.69330890843045              3.1910152512559122
H              2.7651152412733873              2.11137459997596              3.688078837520271
H              3.263690811850428              1.9283158763405084              3.204667158101624
H              2.798074545456338              4.397198402229074              0.46838410792858376
H              2.7288807533985118              3.7226140648465758              0.2637480254191806
H              2.379885004339703              1.8304650820943786              0.9054788435368637
H              1.749507483032598              2.092846778280324              1.1840221315591823
H              0.007234468129467137              -1.1274108904181062              -1.864812697580585
H              -0.8139852022444457              -1.1067611102405341              -2.031326370939456
H              4.451389204545875              2.0988486926258685              1.1905291212044098
H              5.107087714323897              2.551351014712808              1.2356647538492997
H              4.07865993365318              5.036783114962426              2.663754517603581
H              4.468356638652081              4.443113884396545              2.994734826775467
H              2.882723306714203              1.6862003529126568              3.520214585048118
H              3.229578271297141              1.73080901947039              2.9056945572565334
H              3.137542004446204              4.483656748130781              0.5360304003554188
H              2.8280698945982663              3.7906333214408403              0.4883696641987819
H              2.0327701741926734              1.6212192118730804              0.9304041297766009
H              2.019416090445867              2.3312743404417695              0.8828241808456901
H              -0.011902169546450432              -1.151116338515207              -1.5148490044859448
H              -0.7007628078427591              -1.4067709308263943              -1.917043443882711
H              4.830364947187036              2.1424326140662124              1.6143010341642416
H              4.858504363298886              2.605489524352999              1.1169879141035284
H              4.404244748292196              4.770870799141506              2.614576653176852
H              4.432613760537359              4.340197293882672              3.1540873444208706
H              2.7462018333846188              2.4217510266086215              3.5853370546144836
H              2.958577468913557              1.9195978292323193              3.1769504021504673
H              3.26005839422931              4.557906718813311              0.3618243913908281
H              2.9563100286571933              3.815635561620397              0.3206650766208119
