72

H              0.9441509435406087              0.6047563099396253              -0.41564799474587727
H              1.509902841118086              0.9518686986692068              -0.13038561962958872
H              -0.992312130342321              -2.6334888352265238              -2.028560892901061
H              -1.7173470407847233              -2.9063544428259425              -2.0916472409115734
H              3.738850044388283              1.0328996973777291              1.5129776058274231
H              4.448282198786582              1.2679168938094603              1.494208280764231
H              3.6955159744993566              3.58063435029454              3.204698185314222
H              4.251332101735802              3.9941598983437845              2.975868838571108
H              1.5523608887106557              2.0891173150022646              2.2164283039678754
H              0.8911882566564303              2.2351355564921342              2.6129333600810445
H              2.7123442654479497              3.6966580450709867              0.052929910409507286
H              1.992853613169599              3.7184077491330596              0.3863233450496149
H              0.8259930496081072              1.0377564148042073              -0.44581478609633607
H              1.394695073306352              0.6236857529097672              -0.26464046888304393
H              -1.4245488144365275              -2.4303994703400273              -2.2240931711854195
H              -1.895979676579636              -3.0924532023262343              -2.3080091104424394
H              3.835350511054953              1.0305794910427901              1.5572433104986625
H              4.495865546649422              1.2364618417441076              1.2720032585240646
H              3.6206175218583807              3.976980017897512              3.197082442123421
H              4.243608692385341              4.253236093791658              2.951716654769941
H              1.6518337502398335              1.9453808819894227              2.5671373381905482
H              1.2507775572253472              2.5195710222837673              2.426163278289761
H              2.6201615515503653              3.7024555412615525              0.03888576152390202
H              1.887717902695825              3.627238729592              0.09780744181276348
H              1.2590424775282876              0.4239016455154944              -0.6442629282807012
H              1.1636371429350016              1.0643399448363986              -0.3158024909996499
H              -1.2910041685062583              -2.4294947804112588              -2.4542172181839073
H              -1.8978947946347788              -2.7709410355877675              -2.2462655977505586
H              4.026319429337852              1.1474541776983342              1.351754211249932
H              4.56323058285011              1.4109559008155867              0.8787131557410176
H              3.629695272507775              3.882332488498553              3.229022330808229
H              4.170313708278064              4.22995972975484              2.956870560023329
H              1.7912088336814613              2.207332627624383              2.3618600915767605
H              1.1091502651218696              2.586133536262098              2.4556097795530714
H              2.6359992839787094              4.204927892226071              -0.09847654106505818
H              2.1150110348726234              3.7520467877683927              0.21097898408372812
H              1.51445906951418              0.7605648782503229              -0.7058449305992027
H              1.2311576940737157              0.9688083355496163              -0.06475044448746527
H              -0.9061387137230899              -2.3068398625179496              -2.092712290972886
H              -1.537550286771987              -2.645721521377696              -2.2197392437114227
H              4.140254912980066              1.1140422349555235              1.5555652690317168
H              4.499757603965906              1.4391223460048317              1.0260930277135876
H              4.060176491767371              3.4643629982213056              3.257972624030973
H              4.245861829721512              4.1571057345396225              3.058969566792607
H              1.3853084637517366              2.3249462078329817              2.8834468436493266
H              1.1962355145255437              2.474316318587645              2.2133565967070967
H              2.89072284597088              3.867592796014911              0.030717414938105286
H              2.1354362866251413              3.670195434268028              0.19291972118622008
H              1.1159715247319435              0.6925565234694031              -0.7192249704424469
H              1.4808981270583412              0.9856339638217397              -0.11535130679920588
H              -0.8077818468051656              -2.55270672435298              -1.9212068712089747
H              -1.4764250083728345              -2.3954841297198683              -2.0769197201237954
H              4.174074791436658              1.1765655018334111              1.5547362212176588
H              4.311614074571274              1.7188855124454672              1.0796418701180344
H              4.057951831723847              3.6859088227484023              3.3427549571672617
H              4.33649899195306              3.9247057117880395              2.693928419399195
H              1.5464551179177206              2.281047391188996              2.7499653795457997
H              1.3282871036173862              2.2940045133474385              2.0660077353150843
H              3.045286772511176              3.846814115350458              0.03748832038118594
H              2.403345262143184              3.5417352686688073              0.26265293162806636
H              0.9658989206009789              0.649777156228551              -0.5505383995339754
H              1.3277527785268162              1.2652330679105457              -0.3004481589867745
H              -1.0079130662654017              -2.65230712361062              -2.0724333912691155
H              -1.682063335790995              -2.562701986117996              -2.1687545315508765
H              3.6180296610787988              1.4084874071142814              1.4279049843936171
H              4.273445105119655              1.250705971841637              1.129786881036395
H              3.7827183416604924              3.466721571478454              3.274688327223347
H              4.3152883970349345              3.9585002832687572              2.97300000295009
H              1.7007626645791722              2.038521861572585              2.518721386394911
H              1.2039825847402097              2.3398339184905232              2.0737602840965175
H              2.9325080817919633              3.6170503246505623              -0.10117609174903658
H              2.401433455853894              3.666359372170236              0.45068120893360447
