72

H              2.0527007825917902              2.0842145060257273              0.2969227387802133
H              1.7408445010135432              2.0736384538357324              0.9027707531677153
H              -0.6131454325985783              0.06874166613630961              -1.591081720816598
H              -0.2475204560645036              0.2934504536062478              -2.2120574849920454
H              4.708383637693936              2.0864958499221733              0.8747774557586129
H              4.491804888211967              2.3257812292379563              0.25793780089437696
H              4.173037410270367              4.658293502122914              2.913212338176022
H              4.1965022225648445              3.9884010074486107              3.1672691570225653
H              2.7258912694235105              1.3408640665388056              3.565067700453352
H              3.4464338706098054              1.5567569112240822              3.5968819135050607
H              2.5066196399574836              4.579634537824191              0.06503798847812003
H              2.6579793544974173              4.647471282688139              0.752820457943649
H              2.243787642508211              1.9873775297625111              0.3027455516898641
H              1.6298334458034935              1.9773005436306117              0.6998708851829731
H              -0.6869957082911653              -0.15928842850140462              -2.005414230139179
H              -0.19658176461094115              0.44560327366098007              -2.227783699136112
H              4.708197153662849              2.1238584377876744              1.0319071496214216
H              4.158418172027909              2.4873607170448717              0.6567347037457374
H              3.888974438218173              4.657885061637541              2.792019251657577
H              3.900009524789471              4.2623949183432615              3.3878002173766597
H              2.870446651389456              1.429950705880946              3.180526567213997
H              3.299241802277628              1.98768658558517              3.3909830652267456
H              2.9520610027092364              4.323400220401203              -0.09205622698072696
H              2.571254254789579              4.658543244065848              0.4585065901298066
H              2.197638037937454              2.1123338940063943              0.23513707843492582
H              1.7652822144540656              1.6259354215690174              0.5189884246019828
H              -0.5200345905551148              -0.22871234862310263              -2.367840711295336
H              0.04614350155832563              0.3739379056576316              -2.476925558958895
H              4.876358670502108              2.3693168547927845              1.1526792209213599
H              4.423855635835668              2.463089913495998              0.6152117803620106
H              3.9703013974275194              4.8449675305281              2.6555414315298314
H              3.91014635999509              4.377722135933094              3.2928760766842333
H              2.935280538630502              1.2522867001260831              3.0903903558376107
H              3.1545401391144776              1.9642577984183627              3.276707315363987
H              3.1517475078642883              4.446779916827632              0.07809871397174585
H              2.529293233149807              4.51976055142943              0.5089105587430699
H              2.3151234231953213              1.9179520106698413              0.3364337542032208
H              1.9376342592047044              1.3503311795002217              0.7844404470326145
H              -0.31906809381047896              -0.12296767206590967              -2.0178764551613946
H              0.16488001473975977              0.25019706499117855              -2.330993389704356
H              4.63632904946107              2.1422175758847746              0.8045645324872459
H              4.524088127516877              2.7184660196016828              0.46020260732244217
H              4.237689820105656              4.579195550635036              2.7277037918848097
H              4.057526451412174              4.454579400254901              3.453451239715245
H              2.9019632920029386              1.525638154819498              3.3441889437538768
H              3.1813647682651407              2.05031056551413              3.021750185043567
H              2.767074010260199              4.757118901651043              0.08812619904234587
H              2.695124020223682              4.231531169184655              0.5710433626472462
H              2.30398523961357              1.7054540943227334              0.4076490712583683
H              1.921247483483169              1.858486165002711              0.982193349939465
H              -0.6910117864982006              -0.08310345748226514              -1.8698086189295313
H              -0.06845342642362534              -0.10337660397786352              -2.403856997588346
H              4.8744424961562585              2.003107281980373              0.9088269041595353
H              4.90171521476281              2.638793754014003              0.5385606971915203
H              4.266804768856175              4.335573114518673              2.8112640607409025
H              4.147152326821425              4.488671809640903              3.5652267637894215
H              2.8691770874820435              1.3856939393785748              3.176086688612174
H              3.091323429177691              2.198969913958216              3.096332749998388
H              2.95506921975994              4.673127024839656              0.04768315305625945
H              2.4277539763159126              4.371963664220385              0.5050942528603195
H              2.2032921319143455              1.954049351179667              0.1967544619908642
H              2.2869810546554294              1.8272241915488634              0.937065797000359
H              -0.6475384481483487              -0.041933804374723736              -1.7636293097742983
H              -0.2507521368763828              0.16416273369097698              -2.332909785907767
H              4.772007455261484              2.006638715003114              0.8260554657047862
H              4.564629296968439              2.4956646672973632              0.31302996007417966
H              4.269453741130596              4.393930986901499              2.8724513429547387
H              3.982012040189353              4.080597389745823              3.463446351929479
H              2.5785363624566              1.3330318007238395              3.5095411789342683
H              3.1662449205344725              1.835550672782173              3.3456239638765766
H              2.722662714004961              4.393246847297232              -0.0055119463116623055
H              2.4243588435195305              4.109877265079288              0.5976532670851985
