72

H              2.385552949277082              1.1885594911985276              0.9941526267269929
H              1.998372963717264              1.720069219619692              0.7178739251875103
H              -0.2951687236261472              -1.1450314889235225              -1.9054870303698597
H              -0.5322520622243074              -1.7695543670617941              -2.395862403593605
H              4.889303719476322              2.3389575924305506              1.5512438850853907
H              5.179531799290389              2.60911670917314              0.9336993228456674
H              4.148997501249397              4.823660705991979              2.7912505258270706
H              4.216972336249999              4.106570821146272              2.987567484471948
H              2.8197565166138667              2.123882568444857              3.567210567564496
H              3.098548779293275              1.746223402368254              3.005193973074695
H              3.059670500032667              4.500563347279594              0.1304925779188971
H              2.6584795433108814              3.9576300130497204              0.4422858959496674
H              2.0455454972267577              1.4240877262601115              1.0217776734456747
H              2.156661655605838              2.152798199319517              0.860190775945457
H              -0.44684650273238985              -1.4052050591455876              -1.665573461693728
H              -0.7813558869825178              -1.3967191964877643              -2.299690983949497
H              4.792438456561855              2.1928468678182296              1.502568990092191
H              5.14782902535275              2.862979827736038              1.2792931674914274
H              4.449878748899262              4.672022675445821              2.5441677357019667
H              4.651167577104481              4.3001847514892315              3.183637201409392
H              2.770045832060789              1.9526204440649215              3.7151324699669757
H              3.214815862980484              1.907590110934989              3.1501327608435865
H              2.9419324720091886              4.677381806294              0.4538189519020752
H              2.8832014161943396              3.929468631367067              0.3199017468916776
H              2.3104544354990497              1.3680056221452725              0.7873426767067294
H              1.91298702310725              1.8318111354086548              1.175814083866689
H              -0.634207401926698              -1.2803259262150708              -1.6752589061129817
H              -1.2508435122636719              -1.421897998857827              -2.07855754660695
H              4.768812597569687              2.124282125107867              1.1455290200924233
H              4.9645602769717              2.8337755119920915              1.1358864319234885
H              4.655355896775076              4.766109262255004              2.6132001015361794
H              4.520499096408139              4.3314299778431335              3.1951623815316053
H              2.940598102828027              1.6488326622756126              3.8273519985979347
H              2.876810391102346              1.9479037229138816              3.0824040162247717
H              3.0522475681606505              4.600814383162561              0.24607769727911466
H              2.760759577859884              3.9521517800082275              0.40446208324984284
H              2.1722573490916237              1.5679972040064096              0.6577835171461873
H              1.7151373500172593              1.880124612268153              1.1585797917381826
H              -0.5817549841375248              -1.1829971748820207              -1.6551981618679878
H              -1.2650991554695201              -1.3613417493954088              -2.051990967984748
H              4.910500085961244              2.248255003888126              1.5459589456336609
H              5.261580011013717              2.64575203707169              0.9373311079729709
H              4.606364360446775              4.997680516539907              2.743732876991894
H              4.389342342366573              4.30244807962032              2.937105771490105
H              2.642295496081368              1.6891062221832223              3.858929138146549
H              2.7086023677428135              2.2336727482613603              3.257654188986085
H              3.04140624899384              4.589003742283994              0.5410142782228564
H              3.0051627680479576              3.7879373526438878              0.4405161018550669
H              2.2591919232218873              1.2403845785190695              0.933536295649205
H              1.7542170021130294              1.7163987881328415              0.7043609495898138
H              -0.7036898653439154              -0.9664258947951312              -1.704571081346204
H              -1.0751747516781023              -1.443085086928785              -2.00936430476646
H              4.96026353994259              2.3840723173934597              1.5083874399766997
H              4.969249296175307              2.8072509255743046              0.9171348534891658
H              4.475738959858602              4.94006627837627              2.433163184440148
H              4.3913221288608115              4.447506841698383              3.0517055799008763
H              2.734189509636523              2.129225917438852              3.9609406170250114
H              2.946271038150286              2.585644526280976              3.3720807004416473
H              3.111492910896394              4.523388884045608              0.5154531856486233
H              2.7408440096783284              3.9901725701726427              0.21382721426499768
H              2.4281747526638093              1.346357135223227              0.8862711061562206
H              1.7394233198972162              1.5147586499789782              0.7367680668862494
H              -0.6079080811149155              -0.9495749170012837              -2.002731649521334
H              -1.0597256071320433              -1.5079356496244687              -2.290485978840221
H              4.691534149925635              2.340245164721298              1.3336719414888556
H              5.259066867082426              2.779184581008718              1.1122435244596405
H              4.053152357728773              5.128734567061929              2.5943059657007246
H              4.302317273084614              4.477284740621345              2.671410810488075
H              2.924594080666728              1.6940228809560567              3.7093188285415
H              3.1759900241480645              2.1317096857779485              3.101482608067133
H              3.0187470127771654              4.424667301780504              0.27770910810971383
H              2.5276193255679047              3.9818014479699486              0.5454857109761068
