72

H              0.9283546223012275              0.6108404495606535              -0.4086670395451074
H              1.5064838479947187              0.9592996637429104              -0.1477098004319171
H              -1.000000529077275              -2.6332806456993767              -2.028479492120773
H              -1.7002636980646093              -2.895516165989097              -2.092459465630541
H              3.717046053159383              1.0327047728795606              1.510117766907568
H              4.438367474560298              1.273033841995833              1.4857683387851328
H              3.6917991493392806              3.5864003705778265              3.201388978679083
H              4.258301743360884              3.9938133265953097              2.971069627344289
H              1.5713343089402005              2.0994728057497434              2.220835315222593
H              0.8929657367198367              2.2269437115243664              2.6228437711581996
H              2.7129809120608823              3.6844286313413384              0.05790027654182855
H              1.9936946512775606              3.721016311644129              0.38237451435982184
H              0.8159874778986242              1.0397289931634663              -0.44203719883599035
H              1.3958285256338032              0.6256311667540064              -0.27424749378756585
H              -1.4142722748443488              -2.4280362036511045              -2.223646378526006
H              -1.9112670185300553              -3.1040831085469383              -2.3079623840013923
H              3.8406789820982983              1.025786327888585              1.5602220711094708
H              4.5005390635949345              1.2379817723781568              1.2765091727579074
H              3.614247321870258              3.982405149912397              3.199417246717667
H              4.255641019546751              4.249554317638899              2.951531808642984
H              1.6545940584652197              1.9285544616765438              2.564065116003264
H              1.2453000454259864              2.5294258096140743              2.4225112936678053
H              2.6138668603348707              3.715248777120144              0.041065834448600506
H              1.8982180957713946              3.6326761373601637              0.10856811161827944
H              1.2707040003909602              0.4409882785512614              -0.6527380399301121
H              1.1686187033130113              1.0583607283635927              -0.32211453678252555
H              -1.2865134625778387              -2.4232950331088414              -2.45536816033274
H              -1.9005024112838493              -2.77320023534784              -2.234536568836336
H              4.024336730093283              1.13326863280875              1.3509953048642083
H              4.564882127507305              1.4069955921596065              0.8739575551278524
H              3.634343943586594              3.8745183224822917              3.2280086807438404
H              4.166943786861685              4.232603099518599              2.9636217745047437
H              1.7845221133493236              2.2044744559250766              2.3747809022908903
H              1.107299845716552              2.591405834039773              2.4451428637094286
H              2.6184642810575083              4.215789548410116              -0.0922373765029693
H              2.112452372072184              3.7517801985575523              0.20832760019035854
H              1.5341274088631827              0.7641905402253442              -0.7026599295110153
H              1.24750325159194              0.9648542727197883              -0.0698093863117184
H              -0.922352267838965              -2.3086871480403475              -2.0838412560814166
H              -1.533496391865371              -2.630609031994261              -2.209781495348047
H              4.13504431197256              1.1259837032140882              1.5422178007572462
H              4.490530222083355              1.42694616469121              1.0321387470766321
H              4.06483368245173              3.466146325190595              3.2553911723604756
H              4.262667827930745              4.163730703686295              3.055952847387543
H              1.3912067253819222              2.321742450829802              2.883780881765866
H              1.2013645011556577              2.4695631667845337              2.2174336099336514
H              2.894107945952921              3.8672394569255215              0.04373300371534179
H              2.126930541433963              3.679584483102215              0.18130695102608557
H              1.1179703959613327              0.6913599481755953              -0.7230810779014336
H              1.4806275157776103              0.9768610548549392              -0.11498615026584046
H              -0.8142965487537046              -2.5517362398959293              -1.9208247323621979
H              -1.490579434211109              -2.392504777922821              -2.079995227554569
H              4.18480493833761              1.1673733444174765              1.5480279148935587
H              4.31954376442079              1.725984772074155              1.0899796619344504
H              4.04501023666837              3.677577175009441              3.3545615328268252
H              4.3317999931915105              3.936504014782627              2.6894346164503418
H              1.5264014890693933              2.2734334035172594              2.753846924793275
H              1.3277141515139894              2.2928368629349785              2.070278061748002
H              3.0453678245848232              3.8475026180528933              0.018881155277825
H              2.4045072706212762              3.538937053037568              0.2575605838526957
H              0.9689775364242048              0.6471374907319933              -0.5512716447072833
H              1.338248464737342              1.2516713469970961              -0.31253861607583716
H              -1.005318628040161              -2.650137640053333              -2.0888103747032445
H              -1.67417476132036              -2.5645424155987877              -2.1702253283895705
H              3.6303335123146514              1.4048691650880172              1.4308290485137043
H              4.269329650446859              1.2495184960998826              1.1276550133559227
H              3.772982583893921              3.4636626092929643              3.2627329960290137
H              4.30180484272918              3.96730142091015              2.9764338100730363
H              1.7020273704224766              2.054802844787054              2.511337042985159
H              1.228522446794429              2.3377695393087916              2.0737227487181458
H              2.927699812775759              3.6134946482558843              -0.1099897564626837
H              2.4012902375028546              3.6675714926119527              0.4516536646214166
