72

H              2.2536955610493954              1.2661105954621708              0.9797101991290512
H              2.039345705071277              1.9666449586560184              0.9841985286600315
H              0.7555598124909677              -1.091964727151668              -1.7269067291729776
H              0.22452796775053693              -0.4655554121042649              -1.764370141899411
H              4.672559690556018              2.322511694073947              1.16122318941075
H              5.061849871887128              1.8772603484316428              1.5078561726045685
H              3.7517195030595314              4.7102373942814895              3.172252400660486
H              4.530532098904049              4.719626743312639              3.0914290398224122
H              3.025575649509681              1.5773825063503422              3.1772411269715897
H              2.8707586411718706              1.8818297833297115              3.893630532526648
H              2.985942211872343              4.107376579832559              0.7762735939950448
H              2.984300497471022              4.283825074453065              0.022104018438520553
H              2.7534110361538757              1.5366722861041506              1.0179689838718957
H              1.9543822467019818              1.438676911468244              0.9023766062202205
H              0.8907747687937864              -0.7145367545616556              -1.8323387619248936
H              0.21706621200699458              -0.6086278706337245              -1.7118403827227124
H              4.918766528871175              2.4035444289865646              0.8630972722646034
H              4.921273240615962              1.9564064849900296              1.5453857735777405
H              3.7945554297278594              4.649306280894734              3.042540209998214
H              4.473938793511439              4.976023865413055              2.9357627762329415
H              3.167735534764802              2.105010239622825              2.9207033692437827
H              2.9127655425161736              2.1771521523096053              3.5786913323796723
H              2.5907886343520676              3.9818756229883627              0.5962318286141004
H              2.8983095804745322              4.455933568878006              0.11935522757276197
H              2.4430568759081157              1.8388471921334706              1.0670013896651178
H              2.0613110141165394              1.7272188151756913              0.4791507332520255
H              0.7551395304104969              -0.9375397466551835              -2.100977149250961
H              0.3939019908731662              -0.3228148788538092              -1.8252192934404086
H              4.836033254393868              2.6164984176453245              0.936910784071622
H              4.943663668644005              1.8388528428680555              1.079457646922659
H              3.608049991156292              4.805108683692511              2.889333980412666
H              4.3120824899158              4.80891901747292              2.8865391890715295
H              3.3165128970592286              1.7689046079816837              3.0243821433486655
H              3.1726727837979363              1.9822456626671694              3.7304685184179966
H              2.5589107303045604              3.89349735585367              0.6378447306090267
H              2.6664624193633744              4.48690289042182              0.21046545899233124
H              2.6403916153908633              1.5233082994771838              0.6227008716988148
H              1.9643690540190533              1.718482441087713              0.7120896849346576
H              1.0582347052938783              -1.0397728668417145              -2.2116662459317435
H              0.8154161176450607              -0.2690753889813288              -1.8423323241154637
H              4.757103033842598              2.5590938752801238              1.0808147552841356
H              4.647990946753689              1.8705624027101477              1.547671803142931
H              3.7134128615318693              4.754066221794353              2.972676610181141
H              4.3263101114082785              4.39279307824014              2.9687453182558046
H              3.2170013775338964              1.2655030858248273              3.6085279399887997
H              3.0660191738152727              1.9992550105801818              3.5666224170459997
H              2.8940910815820047              3.803877237194373              0.5498359328334999
H              2.542554352746752              4.22539639892163              -0.0010230965499309762
H              2.303521148705522              1.814806905809122              1.1692150867023552
H              1.7469717955472375              1.5628296403813025              0.7804091543605332
H              1.0094103266127221              -0.9057606653000287              -1.7024500199678747
H              0.9337077973123872              -0.23872866213331367              -1.8055677249990356
H              5.0095680043427775              2.6568713481501187              1.2488021649025653
H              4.8184556482061165              1.9768305018016012              1.352275103477667
H              4.086028488853328              4.591448174322246              3.164191066037335
H              4.739730120262314              4.524831161045804              2.7786440171512203
H              3.3795449947389424              1.3337842696842042              3.4782450136291203
H              3.113934800486678              1.9904782149017395              3.7016793229479634
H              2.956632834192857              3.8075449028040373              0.6374449923006341
H              2.8136231984237963              4.494576959529004              0.3514764597059254
H              2.2161074025336647              1.3530286470435628              1.1750495399758119
H              1.7807996186371193              1.8388792691755214              0.851573049111819
H              0.7261306580071364              -0.9583089959946154              -1.5297965657676955
H              0.5402046061649775              -0.27483312580918623              -1.5857874026982743
H              4.653111275461914              2.572697441985227              0.914125011266338
H              4.711404354466897              1.8471060359893123              1.0736581581151619
H              3.9353078250579463              4.42858973153741              3.3843059529965815
H              4.550619524652237              4.586390217471482              3.0382261894210134
H              3.598107625261156              1.7472468912558967              3.605888108441713
H              2.7852246763553365              1.837952628948005              3.54761120178139
H              3.014095441558308              3.8383709245670157              0.641143890104996
H              2.947195197917657              4.383219700380419              0.10417141293962706
