72

H              0.740026198518672              1.0041330767308492              -0.45111746594281243
H              1.2380982592716696              0.8564069005089039              -0.9225430754968895
H              -1.0368053455640835              -2.4235769616599754              -2.349351665115538
H              -1.7150666084754653              -2.5989471733800427              -2.281014963217761
H              3.746271423246785              1.1251734245497451              1.3976108153680589
H              4.171798300825849              1.4425439024257507              0.9029329814388259
H              3.6017133279297866              3.8815069120766648              3.1229256565857555
H              4.207307868570356              4.189704051095731              2.8502177525538386
H              1.9760275877234914              2.2590902373789867              2.80924969358238
H              1.4695608332657575              2.3614095718955235              2.2028886140685793
H              2.81120264958357              3.634562377805362              -0.10883675360874165
H              2.2007612787012842              3.792893906295903              0.3016676162244521
H              0.9771470149694035              0.7060814225153329              -0.5541895088385517
H              1.6153013023678988              1.1015409383216317              -0.6572503102018525
H              -0.8920827058041986              -2.5632118181972614              -2.2532179243256296
H              -1.7547949428285623              -2.629205380710408              -1.9699651082215741
H              3.743017717711082              1.0186039450764575              1.462856987990535
H              4.427683225985624              1.3653312064572072              1.047565054989094
H              3.781094992879484              3.6810165004985755              3.133011120343563
H              4.412965426797756              3.9934571331608817              3.000204124172267
H              1.782590491594603              2.050583394349165              2.3174965388042
H              1.1342957491852677              2.4577150321844288              2.4654705025799126
H              2.628889554927407              4.243482685481991              0.1427311139171197
H              2.22613714260421              3.89140954410009              0.5856840046700643
H              1.2111593379425079              1.0648836142340834              -0.7251237778184214
H              1.4926802394834042              0.967155461128204              -0.06961895161315629
H              -1.0712171653638958              -2.2819471766924377              -1.9015008669443014
H              -1.7531651877325252              -2.737199476554678              -1.8502445371878171
H              3.8696787364072343              0.7951708043503167              1.438170826064445
H              4.328607914235906              1.326931368608457              1.3048468043953225
H              4.021957243274994              3.5971447206596436              3.2417483487099488
H              4.428864034311004              4.112845852278652              3.0220151770810517
H              1.21337022932319              2.0266025856849              2.9177631042034644
H              1.3176885890120695              2.3006425359633167              2.229335491262443
H              2.5013487931944085              4.086780734834275              0.36289300303198924
H              2.0009329599120766              3.6262113239513227              0.12200092212012846
H              1.3941165506281397              0.7099795550829755              -0.7354715297613922
H              1.5422232249245922              0.9926284120485643              -0.0664836115369712
H              -1.348689437163634              -2.412308411071848              -2.034131410882832
H              -2.0163786160158748              -2.4871944491933955              -1.9392672717253825
H              3.829427382189896              1.0883293697763026              1.3231359238279183
H              4.466073589931752              1.3691379321854225              1.0472576748538203
H              3.775080066621023              3.9383730586394328              3.1027948762716173
H              4.427499682137418              4.130589019247115              2.9296693394439077
H              1.6664239292640073              1.9013095353479827              2.6828851934203355
H              1.4188708772779932              2.418601564344796              2.1198304067471927
H              2.72779177462993              4.077706679990539              0.24489610457282018
H              2.0576824637333395              3.840008627540201              -0.09782610752473082
H              1.2359712873750601              0.6321578017712212              -0.8087074034893468
H              1.4487273896459205              0.9575159757159839              -0.1096272863357236
H              -1.210367572316675              -2.343999244970432              -2.2209137510015875
H              -1.9767687665602462              -2.5536687350841585              -2.18429928102119
H              3.8695120005778576              1.0341308118800754              1.2733913840966895
H              4.523785344952919              1.269630425337084              1.1807210627652398
H              3.6448153913094896              3.6019486093106257              2.972660704928114
H              3.952371512642752              4.214987140908095              3.3377294776017603
H              1.455192602800547              2.07315795402492              2.8305829874427855
H              1.236299195105464              2.394062739282189              2.225641512472825
H              2.6518290395786175              3.7350943951074385              -0.4070900513155911
H              2.1120734234074954              3.7755000220985875              0.1404354237688023
H              0.9307942716990044              0.7096142426333546              -0.47388896685674126
H              1.6321273818959214              0.5980866582037786              -0.4404760429118881
H              -0.9391070139033983              -2.41025071342494              -2.296864065119843
H              -1.595578038119399              -2.667874159290815              -2.2348475008886814
H              4.063686438997863              0.9452182942000114              1.5907364096847492
H              4.512941992898789              1.4661880197898773              1.1761760452590466
H              3.6266372823838497              3.746284651233356              2.9317726134180297
H              4.03499307713074              4.325909991420211              2.9711598026559636
H              1.7606926780173453              2.343783626027547              2.84182377772052
H              1.399284562831509              2.3036756104167777              2.1855378016766425
H              2.7301473174847684              3.625077902718327              -0.2183948655192893
H              2.112182393454605              3.806465413548807              0.20645970143554784
