72

H              0.8611982996242904              0.6389005258788479              -0.38437911418640763
H              1.494114099818911              0.9882543556033673              -0.21919658608838583
H              -1.027874615594766              -2.6278237757974314              -2.0310090352338435
H              -1.6403015653031232              -2.8534574947000553              -2.0980152365219045
H              3.639567628459248              1.0377121746177966              1.4987338591770205
H              4.390737148029368              1.2926641913132468              1.4450047695292916
H              3.678232828266838              3.6139952814459435              3.1896994643666874
H              4.284260471492093              3.993288241712106              2.9495619256480428
H              1.6369910536904293              2.1402657889948804              2.248879407435059
H              0.9194528921500481              2.196808304648354              2.649258460680217
H              2.706485960070922              3.6389709688393803              0.07998778431928577
H              2.010739437550634              3.7289495426525425              0.3604026226289875
H              0.7821631671168972              1.0394919054519633              -0.42845349301189706
H              1.4000030760330031              0.6402271453967842              -0.3131157834787262
H              -1.39358318415274              -2.4419989234736974              -2.2263053174517387
H              -1.9439691186723473              -3.122732299701102              -2.301540564751753
H              3.868188555858827              1.0119589076340487              1.5630072646040887
H              4.5112565741718145              1.2421736692710799              1.2985917949222885
H              3.591602700285634              3.995831258863293              3.2083111394786163
H              4.301541686931459              4.233889454643465              2.952308868364274
H              1.6581110448961456              1.873474376463622              2.5413007080520615
H              1.2269402195836743              2.558872490310806              2.4155655225987043
H              2.605027267393377              3.771549242961759              0.04573429207638295
H              1.928592742977874              3.6547702536883184              0.1588319954311008
H              1.3160914443634586              0.5006330402940787              -0.693982062783717
H              1.1890848858250505              1.0459806036357782              -0.33325946500878006
H              -1.271088479010819              -2.3999615900612814              -2.4524180809489073
H              -1.901123044400549              -2.781283923259381              -2.188212087319399
H              4.021876707736552              1.0781248151972012              1.3454951157136024
H              4.5642595117063305              1.3884639859576224              0.8678425507675167
H              3.642434183056443              3.830187829391599              3.2331746821424563
H              4.1705917123343              4.252245466382545              2.98082292224598
H              1.7454193656935284              2.196799922343144              2.4285675938664424
H              1.1078902633044683              2.6043191907208394              2.4055701810866768
H              2.553634754707962              4.250486766983751              -0.06447861359711153
H              2.0986830250042705              3.749078317697122              0.1979885104482036
H              1.6055122552722874              0.7750714862589343              -0.6936874125151778
H              1.3096910413668867              0.9527470510970358              -0.08660583327007823
H              -0.9701865692119256              -2.3025948501148377              -2.046226866953259
H              -1.541554808515211              -2.586630741531898              -2.174670643245148
H              4.09649719324728              1.1612226689702174              1.5101780536743736
H              4.467832365759616              1.3935328615236524              1.0318997926712161
H              4.077665590334965              3.4825945458468475              3.245142658376412
H              4.330002095363712              4.18578162371483              3.040567452470122
H              1.4212357414524868              2.304112302003276              2.888891118243728
H              1.223370733387915              2.4523865312214017              2.2236017977082008
H              2.8900606482884843              3.863524603035366              0.09494939806745759
H              2.112096271963456              3.719891483471766              0.1351139691649197
H              1.1310302840187327              0.6903035686782157              -0.7285093712370795
H              1.4723421024242307              0.9393763082418768              -0.1213618727689005
H              -0.8372156522542973              -2.548798143635648              -1.9218636074170283
H              -1.5545889725256887              -2.3822780242046626              -2.0946529857996303
H              4.218234391179874              1.1296492015624542              1.5213086258616235
H              4.355956638110348              1.7490069053003143              1.128641034938555
H              3.997980827644455              3.647242492877505              3.38675282011803
H              4.303696742428718              3.9788774211303988              2.690284850224821
H              1.4558085298434276              2.2402599113713735              2.7751976608861524
H              1.3144661335942982              2.2915552141114786              2.0809944673974945
H              3.040656011843815              3.848212089372071              -0.05556858413211919
H              2.4078689964738045              3.5331845017070047              0.238280561841463
H              0.9819804898727511              0.6395467963738197              -0.5525657017530029
H              1.3828246778122049              1.189753242104021              -0.3577243211426402
H              -0.96884761315412              -2.640834713461727              -2.149132913525776
H              -1.6660480290201132              -2.5729478556393017              -2.177513086981681
H              3.6794173432565924              1.3885691650106708              1.445154262292638
H              4.2619329799324674              1.2436125247064358              1.122521919998142
H              3.7436854486030877              3.461042003797813              3.2116123457792667
H              4.241290987571801              3.996800032638467              2.991765883736154
H              1.7197768648903087              2.110668507051343              2.4988346216961514
H              1.3071416608434054              2.339159610152859              2.06422706799594
H              2.902060624463365              3.602076713105283              -0.13500526273804006
H              2.4014274996252833              3.6708353249280012              0.44477174757227883
