72

H              1.2663851057473312              0.9006496282934079              -0.6408540270913577
H              1.154126713794153              1.2635843497266237              -0.0027743749526155377
H              -1.4213219187665442              -0.7361903988980874              -2.352761287277133
H              -1.080312043417049              -1.1835584531448007              -2.0019855712388095
H              3.8844643881360392              1.7977281985176643              0.6258949122721462
H              3.9849045108507264              2.3137163870133195              1.0615025666226225
H              4.417913843270047              4.373712265694869              3.0445375025754506
H              3.756888082228697              4.28552974047315              2.6624837594013266
H              1.5333470086364234              2.5399737618677176              2.7134232921017203
H              1.6743045290229168              1.7936870999159866              2.6600289402645645
H              1.7750793372442975              3.628433948985526              0.2867311799270258
H              1.60357847668106              3.9825185213859835              0.9575555715094758
H              1.5073797555761521              1.0389554977208286              -0.5064776008016609
H              0.938019047048719              1.2898145651914992              -0.21013502876076653
H              -1.4627661349985999              -0.8724645717074776              -2.2520262716132207
H              -1.1504833510041979              -1.317508494690429              -1.7841871835744116
H              4.404733926075422              1.69659582160427              0.7455505966923197
H              4.4779792880202445              2.374618130893418              0.8954031524075279
H              4.3872151064263925              4.436491075859412              2.8908730134458023
H              3.8318167795772893              3.9418060098605134              2.7234500308852883
H              1.4607013856679658              2.4290118928415714              2.7525982768706343
H              1.3816931778842139              1.7707213287712316              2.774054174447875
H              2.153710090932594              3.9289280679276195              0.469182631749561
H              1.5435373683057008              4.080628412216993              0.8060701247885612
H              1.4980780815418027              1.27214353142691              -0.5072777723604683
H              0.9995214138851932              1.2125092521392844              -0.03869538823900554
H              -1.601563822480922              -0.9433186112344933              -2.338132141688259
H              -1.3730181047894485              -1.2117571592969412              -1.6797027647045202
H              3.8661388688812393              1.6532132586478014              0.6666623538830507
H              4.328705679007687              2.0904553807034727              0.9347128289738442
H              4.040056842019319              4.195507759271564              3.2015223847874412
H              3.8245976208831456              3.860763331871432              2.597388080861971
H              1.3801380320653165              2.466352694347436              2.7381554953377814
H              1.5744207881785934              1.8230095872209686              2.803361507730436
H              1.928677320901322              3.8231757727653553              0.3302117311871528
H              1.410567853090979              3.947965147344119              0.8686760343675303
H              1.5498602922334102              1.2891474652057768              -0.32681450803162654
H              1.029980562199751              1.1678625494744994              0.2257391345762211
H              -1.6198742687038798              -1.101387778561037              -2.2356347201675564
H              -1.5581130694901424              -1.1752693295392247              -1.603076136772662
H              3.600798153528602              1.647836805177084              0.9843786423495596
H              4.244938687604325              2.058340719542657              0.9374041773866503
H              3.9032149764774986              4.4706568518820795              2.929867930023848
H              4.024096244423537              3.9628627153143676              2.4480507224324453
H              1.3480595848796555              2.299083506094539              2.596261651838469
H              1.7268571411689144              1.7437085246882504              2.867799627831421
H              1.9642371861654566              3.85857448484017              0.5848265044188143
H              1.3282039232034266              4.203163219617368              0.860272346443472
H              1.5234346672900008              0.633143822157913              -0.23019995553277636
H              1.0954504801125793              1.2296990263321173              -0.09291192192791663
H              -1.9350156993976708              -1.0238889709692909              -2.6286778940451323
H              -1.7182420259043767              -1.2660895896707283              -1.848889432360198
H              3.898726311617479              1.5590101362978412              0.9273491141050741
H              4.280609638635004              2.0924977708559744              1.1886241236694457
H              3.8205612046111037              4.784805455646813              2.8389843981213456
H              3.563519650938406              4.181531759391359              2.6155588712980076
H              1.2318838123037095              2.4334216947125116              2.4828943948685294
H              1.664160308312688              1.7836217331300308              2.7402647642868723
H              1.9966724867542436              3.736925134908293              0.512605884917449
H              1.3841967817974763              3.9720250888725683              0.7203920875341998
H              0.9547758931742321              0.9259520531523455              -0.5581131007586563
H              1.3009398542000976              0.9927347121953655              0.10519747663336824
H              -1.8469725220399227              -1.074954907313093              -2.7689196684196777
H              -1.2993101539797414              -1.103948738451121              -2.1760593942629467
H              3.9623645743216054              1.6331184054418315              0.8709312643192572
H              4.444805208979747              2.154055472191012              0.812281465761242
H              3.846181935025257              4.702477503171018              3.0718268062743324
H              3.767567070469302              4.434580935007344              2.4010408335401383
H              1.2795260411157834              1.9407192310393693              2.3094797913754403
H              1.7293433537195144              2.3802071432707854              2.7507112147295874
H              1.650109726318011              3.766622852979156              0.265841624872176
H              1.5774194264913688              4.186283721609306              0.8896384398535179
