72

H              0.8494348253564064              0.9850110313452249              -0.43270980797375486
H              1.5257753066560955              0.7645373711595437              -0.5801113719531278
H              -1.2267592193211667              -1.9192411529871527              -2.4413030769869866
H              -1.5432336252427015              -2.306172627353899              -1.8598581698254575
H              3.5132603894613377              1.2175284495029892              1.1952276252963585
H              4.139066492307665              1.5016792277456064              1.1240881470796809
H              3.8777857367409285              4.170163672705862              2.3899050700182403
H              3.8379736052389557              4.021212037436418              3.1366406983360626
H              1.4349459940058125              2.1386314591350675              2.8571910915774024
H              1.9893817568636307              2.1703332504117228              2.415373153031795
H              2.5191756623191397              3.9983344413821285              0.28886806151430644
H              1.867626073367409              4.111926397876003              0.7032535329153076
H              0.8744942315910696              0.7366904336839298              -0.6951840930112358
H              1.2631110066941384              1.1150767290736208              -0.26031884642118563
H              -1.5321039125980571              -1.8435791889065711              -2.237219275430117
H              -1.6929405757052631              -2.325175767495399              -1.845629039526932
H              3.701892323437152              1.0401382157093135              1.0722772587436278
H              3.996108381828826              1.7041863433130744              1.1532959486358771
H              3.673563454477554              4.191266058427926              2.4592200076502837
H              4.160238521618691              4.263842257024388              2.985460468383868
H              1.5957814580661653              2.108945499488512              3.064299423989297
H              1.591080839858189              1.934162921894615              2.3188647153893904
H              2.5036650262972255              4.226180581506278              0.6728551049542261
H              1.7926452719409793              4.070740671193729              0.5007305903871156
H              0.8469554835585389              1.0054370123674932              -0.3381140418651309
H              1.5538958444013382              0.7111721362686185              -0.4065378840858941
H              -1.6649429361957453              -1.8393815808364375              -2.3536822607095345
H              -1.9568247823012679              -2.1231837192476815              -1.8025019928002861
H              3.514446630198645              1.1351069226089618              1.103105542760513
H              4.058426562719464              1.5529331427710518              0.9156779418963532
H              3.8606950477917406              4.318628600227434              2.4810197473580384
H              4.083631324731451              3.9543484871472994              3.1012239642568904
H              1.6129283795277085              1.8990312642674025              2.6981890031815317
H              1.8994300273815017              2.3335008749845705              2.1131631727110696
H              2.4499028360781026              4.326874711512446              0.4535638484119854
H              1.7584910797723383              4.2844081538024845              0.791802112731281
H              0.6913690182524761              1.1480160302348483              -0.125567697236064
H              1.3744544033726314              0.9908174566239772              -0.3917680308877651
H              -1.3013116914369494              -1.7637271925314377              -2.1343764350423693
H              -1.85467123220104              -1.8974479595406415              -1.6084415261313725
H              3.738125841975726              1.029865553896265              0.9356129334494562
H              3.9725222096856796              1.696329828040633              1.2907382312894145
H              4.0543696391885735              3.9903823214817717              2.489389049524377
H              3.967532582000509              4.030731231334749              3.2020202225563485
H              1.233055768239853              1.9989587696683337              2.8859943898486677
H              1.7082922296515668              2.1519450542446523              2.2435758385469913
H              2.3417605724668165              4.243803395327578              0.2070276771650911
H              1.7704423442289294              3.9220496013358708              0.5838894759868078
H              0.7901838166828155              0.8881005487478421              -0.4585770703173073
H              1.5046467399055132              0.9735763053158445              -0.15926584828328946
H              -1.3092371786401298              -1.8898942098879026              -2.3111065373050512
H              -1.8535740751568277              -1.886549537206149              -1.780513167081036
H              3.961087609917991              1.1000809826790283              1.1138064402621697
H              4.323295768945706              1.713942338870856              1.0495573468889536
H              3.881194594500695              4.1692753283690935              2.4239505291582613
H              3.944753638931429              4.243457015723363              3.0976571782462536
H              1.3688594999824575              2.1060520809807253              2.81794616494877
H              1.9986618300996388              2.0176079545676227              2.407767312557109
H              2.6535389952756496              3.9608972492507966              0.15881879545229396
H              1.945738096354934              3.9483848384817724              0.15654022875213547
H              0.8275198631395069              0.7055841948084173              -0.3086038881333001
H              1.1880475011344405              1.1750318682127088              -0.7178899016413361
H              -1.3392343525386738              -2.0656872679702625              -2.571182263071826
H              -1.68779691142338              -1.8244253331842297              -1.8700958686013254
H              3.713212760336095              1.0535638148138053              0.847911350113223
H              4.2296582586349825              1.6639955325187994              0.8330257495817124
H              3.5900932710417965              4.147606004526649              2.449192075238638
H              3.6830120821346393              4.061243622273163              3.168439857263431
H              1.660077275763719              2.058399210160169              2.960331490597141
H              1.674145490309465              2.285069130338446              2.3110495384117455
H              2.5239821195911967              3.9916119502184477              -0.17894590286938683
H              2.0776223011106816              4.026990949324174              0.41784353623129655
