72

H              1.1226932338880693              0.7206704482241512              -0.4374025694431935
H              0.9477894559924434              1.0403427331908615              0.2504853096934751
H              -1.7620746430724823              -1.4649449411614428              -2.4935175687843927
H              -1.6341596876604667              -1.5633011969166868              -1.821020022451937
H              4.04482829575626              1.4368427365397372              0.9881641784289885
H              4.4740364651586075              1.9546693135642035              0.693721432045199
H              3.7501353050021975              4.768516996247921              2.6837593288399595
H              3.85264619039023              3.9624707323155217              2.6579658910640127
H              1.1730722287028637              2.352406798359666              2.6582154256170902
H              1.636937127258441              1.8547378661896503              2.899586273367883
H              2.2099354170233365              3.9974506415719477              0.6599238776558302
H              1.532508989865675              4.227199497058923              0.5123870478778467
H              0.9112764735140219              0.967011836596584              -0.35262477140725934
H              1.0419542115313218              0.7507112042666134              0.28885621355902863
H              -1.8289605634937016              -1.2410208048488478              -2.5559900513895446
H              -1.7395056052078592              -1.6516293199137786              -1.9203793829649378
H              3.4323282235789123              1.5348943691837582              0.9039407409243333
H              3.9522409904445657              1.915252069201694              1.1583953696197875
H              3.9508437295210466              4.618704440273658              2.9294772117057093
H              3.6691444636765222              4.015143682701758              2.5745688391620525
H              1.1998967845518944              2.4530322845038217              2.7044727618966933
H              1.764326220611086              1.94567821012768              2.4501144507949535
H              1.9086903032869835              3.8410787086854152              0.5808994517377107
H              1.4032642189168103              4.159300389539906              0.9904609007560513
H              1.1030725477970225              0.9032385956355352              -0.5204957651482924
H              1.058132311427694              0.9240500178934121              0.21699768453381452
H              -1.7154615484056515              -1.094768894005501              -2.376511519634233
H              -1.5645549606815496              -1.6275736714998068              -1.8644530708494573
H              3.795511815823475              1.5417100966319928              1.0773398640037664
H              4.116823343796167              2.1938214240613734              1.1940032501149915
H              4.305009463661844              4.734719660107125              2.607474484152817
H              3.8176129900531883              4.151345336849275              2.6322221451484555
H              1.2825037197602052              2.321680967767865              2.757537623599426
H              1.5492706431166945              1.8715674401766793              2.2758751108483155
H              1.9650620989355732              3.8770622286618406              0.640747067430951
H              1.4622129344518973              4.217546286842071              1.0869894254852766
H              0.9531268258444529              0.738640218966171              -0.5882004474711585
H              1.123991930093145              1.1285227855672968              0.04769158852732581
H              -1.7209898376460697              -0.9903417708073918              -2.4555233615321588
H              -1.5652418627762688              -1.374108869499495              -1.9033039877092133
H              4.025202821553045              1.5440185438705685              0.6448822766185415
H              4.179284184179043              2.1988629637542068              1.0050889087673014
H              4.28488464952485              4.528890662733543              2.762170273905825
H              3.672573548236487              4.12341243375167              2.830027906189556
H              1.3897922132589187              2.457558890229572              2.7486439872195616
H              1.6089153803384966              1.8703796545910623              2.3181375341534314
H              1.975566623295175              3.8077740546983425              0.22422351461316295
H              1.6790113398747317              4.059917825398302              0.904665209423086
H              0.7963387594842035              0.9846986935758513              -0.5001594996482877
H              1.0724816569168734              1.2870246061858739              0.14797959686646972
H              -1.3745218654442601              -1.247787778128194              -2.456109556957683
H              -1.2763269015386502              -1.1992636940047832              -1.6010584284260316
H              3.8727871653940302              1.6209215542796518              0.5736713610554888
H              4.341615317588857              2.085533199627372              0.9445311698085134
H              4.344314358757168              4.300152891431019              3.009182861980048
H              3.7552028475072365              3.8610298267670116              2.709256157544862
H              1.1883848722844659              2.3822932051727888              2.5491903155666473
H              1.8525976484837798              2.014587244769218              2.533328005241677
H              2.015108280657993              4.005827271250361              0.14786340725891442
H              1.7260421619447792              4.038228574391694              0.8776656111118153
H              1.2501989975841041              0.7410623128822535              -0.3276494833140412
H              1.0498868657682852              1.4595749656298944              -0.13723200462783347
H              -1.3368147609959664              -1.2341435022142084              -2.319188534151316
H              -1.3606182448565165              -1.4572273678740228              -1.5204630347443624
H              3.9353563781659386              1.514415916067335              0.8086320298527133
H              4.271645908283421              2.048742518004645              1.138103555027749
H              4.263714632902448              4.321445892232823              2.6952212962949806
H              3.694888037583014              3.9335392481107068              2.9734482022843416
H              1.2175195156839582              2.418697336065719              2.672794583149193
H              1.620401400624603              1.9108767478006174              2.953839558875746
H              2.281048167073971              3.8373042806344126              0.38535443539759867
H              1.5458984900698967              3.741144779215559              0.5825182620829611
