72

H              2.207004848129502              1.3428245606487408              1.005829511748082
H              1.5623201090969685              1.7332562586934046              0.7829993189714779
H              0.4145848052622469              -0.7759089829963265              -1.838448980046349
H              0.2797568565485814              0.0069112869239955094              -2.0228671520544887
H              5.722364439212649              2.681622813723799              1.3299868662546221
H              5.258954851821336              2.0136245859758297              1.2379203078268397
H              4.028314740432047              4.996339298445158              2.9759182628106884
H              4.387409855142462              4.427365995443406              2.8978262704150213
H              3.1275775029026973              1.5160456986488382              3.11608261424091
H              3.404109414983228              2.141294731710254              2.9734627306234582
H              3.3598867239025787              4.154231368995185              0.3622068935680584
H              2.9652899233205257              4.615140452282433              0.7650074382726431
H              2.473203482884104              1.3761740849823676              0.8171866571837142
H              1.9410510688792413              1.846667396040976              0.6582039328386219
H              0.36151310250844243              -0.8984487350606659              -2.0109639017759044
H              0.18377858991882917              -0.096382843386711              -2.1282276958334974
H              5.399891964217341              2.6044726814765116              1.2984292634855317
H              5.256918327582764              1.9552040563608353              0.9146227141691315
H              3.8005810035670393              4.735186342380285              3.1272576737350546
H              4.289420927308936              4.298009557807797              2.796354194680803
H              2.9912038832787236              1.3569255824905573              3.271654139587333
H              3.1628544408624335              2.0444232998961307              3.1926528962048115
H              3.170079750744671              4.0619903084321765              0.7034965887037001
H              2.599123976097484              4.483677450185066              0.39891465246550817
H              2.4118018606958755              1.443236902536833              0.8768657776602276
H              1.7170777431970967              1.7278208519296314              0.8900545298394481
H              0.471965571555535              -0.5887989208883815              -1.7788973706118896
H              0.3231521449949598              -0.08329300009593758              -2.235831119403341
H              5.600590095900024              2.4610186352611345              1.536068587098636
H              5.232701927217538              2.0035011788228245              1.083248360546377
H              4.091164784897655              4.538005230874162              3.199005916596423
H              4.2385434183149995              4.256198683264332              2.5315741764326165
H              3.1656135820826488              1.29337751579952              3.3712630478299257
H              3.2754629030554234              1.9986138846088388              3.1796794765036642
H              2.802582231058104              4.1659890563288435              0.8579389264679569
H              2.5689072261373798              4.692969727388397              0.3872967606543732
H              2.250828724908737              1.6854136884655442              0.5691023312955218
H              1.686539884793934              1.9061633029023453              1.0584859386064696
H              0.49655118584977354              -0.44149494332583006              -1.7478814660340642
H              0.4122487886716514              0.20786854601094687              -2.0547650204302785
H              5.4621351894843295              2.553158555404233              1.0615122386068736
H              4.952967575017872              2.001899318130695              1.0792055494689121
H              3.9342671245479854              4.4879945316398935              3.080941640591107
H              4.297530027894213              4.199276935513542              2.555767757156127
H              3.789072270845236              1.394445642440264              3.335625182945269
H              3.159726385913872              1.7291506735043929              3.220666781371205
H              2.782080685593762              3.9902269441509977              0.5606992800457788
H              2.8192014923900692              4.706257230440035              0.521846991255904
H              1.9544122386533773              1.5857064994504364              0.9420474419356012
H              1.433372958995464              1.868891834670612              0.4911948555060226
H              0.5130424349146369              -0.5070414995432988              -1.831567086227563
H              0.6909560036965472              0.2721487553583069              -2.005855342530625
H              5.33704123140326              2.4081110957214014              1.5110423359512068
H              4.996404546100503              2.0185542310441105              0.9320023684303812
H              4.127504347768165              4.808493908735011              3.131260161453228
H              3.967846510037476              4.141447652183328              2.8206973565349687
H              3.4468853095089664              0.8603027422523601              3.2612461248704534
H              3.4261482316644325              1.5907777778198506              3.567620170578202
H              2.9539504835448605              4.006928334479938              0.5722507164666831
H              2.9766211634259245              4.721599946069301              0.5852546377751261
H              2.1359810781431827              1.3638178801404377              0.8563898287163821
H              1.5206689365959278              1.7530116769263273              0.9082105703116444
H              0.9105422573375044              -0.6300991899018223              -1.767482121379792
H              0.6134243522955003              0.06708701267549154              -1.838384901285337
H              5.623493961360724              2.5118231468518317              1.4482673813138904
H              4.913578879894948              2.055251546305224              1.4215657510431732
H              4.275598535577084              4.809798722625968              3.1892183145568755
H              4.2076231770138035              4.308599183955156              2.7189972668015767
H              3.302760802725413              1.2778265894601417              3.5054968978923657
H              3.1962491971982216              1.8764036951973726              3.0509029170284987
H              3.3922111702769095              4.088059223919255              0.5273778515293872
H              3.08107362916591              4.738352598650327              0.5765746709020797
