72

H              2.326640290403337              1.6938914680837667              1.134021403950491
H              2.0409057083774793              1.9009387182219892              0.4459029061147972
H              -0.47600351023400883              -1.3121626625851106              -1.858526963843636
H              -0.9336927238201603              -1.6572592547902103              -2.1694746863554486
H              4.961977630916401              2.1989263857533348              1.5812857463357046
H              5.143068769927166              2.855477860109154              1.4456740939644979
H              4.427635019520481              4.944549091387891              2.5059389515572734
H              4.250987837178966              4.278928321418009              2.846697012869773
H              2.614934955980588              2.0382295811608544              3.9449264788944576
H              2.941564229552766              1.9093060800858597              3.1763077928212105
H              2.967489367687127              4.433207908724338              -0.012485613034693465
H              2.8636744560514305              3.997975940131633              0.56449828403016
H              2.295476409483074              1.0679466908891029              0.928767623066797
H              2.111105212983837              1.7285342689848806              0.9177088976291926
H              -0.39894645332148576              -1.1795126606562563              -1.9038834915825888
H              -0.907091045109162              -1.715966406880248              -2.1688904915268483
H              5.078807686291797              2.2512881227289747              1.3734180480005636
H              5.246005548304374              2.9816446508772128              1.2307378989368574
H              4.498333941664462              4.8938291376013225              2.59318529976143
H              4.357765617698214              4.364481803450385              3.0516004450870455
H              2.344519626801419              1.876602709658873              3.7260931895819795
H              2.8926767892580636              2.242823612965827              3.1883830905193493
H              2.805806056510481              4.318656144146666              0.06795865579145391
H              2.5327698737261164              3.8900308643731103              0.5544802968857718
H              2.353598267796827              1.354960481866211              1.0213691625109331
H              1.7618347465198922              1.8394315510705195              1.192527112554912
H              -0.4347655815120769              -1.2229918623799871              -1.6799658950011902
H              -1.0223955056060283              -1.4854022246002292              -2.1789467997137777
H              4.826385340442221              2.3187485920459396              1.1539482662721112
H              5.196497753250788              2.9129947120162054              0.8849307142341597
H              4.46627553531553              4.830224262277368              2.5432660541934844
H              4.413363801141205              4.546294470782313              3.252539501180331
H              2.5848992304769753              1.8529452340617791              3.8589663079375263
H              2.8192289868047697              2.359192612153571              3.3337691011370074
H              2.6748563599271744              4.585813943225067              0.41277662426423384
H              2.88571317783528              3.8756195032897613              0.3874794736821279
H              2.4127611322733187              1.5153941989407105              0.9224005459917508
H              1.7097118426093254              1.560815880966975              1.0694279580447212
H              -0.4516524293280386              -1.0141459195368208              -1.8340375093937866
H              -1.1010871336032846              -1.228396389031854              -2.1564768302914215
H              4.684954126586193              2.0223040809762316              1.2032827071505519
H              5.028003513612669              2.73099537456801              1.1398976538973684
H              4.281633590060604              4.993886190281319              2.544731517126596
H              4.3416508230644695              4.588606373356151              3.1398526090028382
H              2.654628231848804              1.9966291220810077              3.8678100449983517
H              3.103264370608554              1.8444789483427415              3.249729075895344
H              2.8110732242639846              4.3322310284711865              0.481964156040902
H              2.8842060344149036              3.6328041724411557              0.3028680084742861
H              2.379281435003781              1.6924814458656758              0.9440341843695259
H              1.7765889941931048              2.0765446984040947              1.054496768226446
H              -0.09663684788995698              -1.0005693106395206              -1.8552704033014233
H              -0.8185513484117474              -1.14444897268749              -1.965780456479579
H              4.50262589083541              2.242935560571606              1.3398545688647887
H              5.052738674039366              2.6339820792553583              1.1642213024410208
H              4.2297068083403655              5.014844771980132              2.5935306408976286
H              4.520618237416603              4.503568692416574              2.9629451734008123
H              2.8482899223011895              1.6830207717795647              3.521285635900058
H              3.251912951597399              2.109633529042986              2.9939850889729693
H              3.2142802086125397              4.427963184748533              0.6459824853009459
H              2.764087816455327              3.886507018688474              0.4663400151985552
H              2.071535699587754              1.4956608890453207              0.8575939935602551
H              1.8818212665499785              2.2501116788035396              0.909428693994079
H              -0.21633792795612275              -1.085759022149527              -1.5811913708277856
H              -0.7254748315447338              -1.393041204396844              -1.9315931564951077
H              4.665487082907727              2.230077048683185              1.5860359383499185
H              4.879062116504796              2.6247550823175048              0.9301538128032095
H              4.1808607903949735              4.906100405436              2.551369536450992
H              4.428434770076453              4.318937005733588              3.077968310561273
H              2.940054314444838              2.424775290975276              3.6230324413639496
H              3.023713625892889              1.934611468305641              3.0091262010722515
H              3.246183716763654              4.5513977408692385              0.3558170194757406
H              2.8818259729524573              3.908937999908072              0.3741261744453554
