72

H              2.193923038798727              1.228482830278356              0.6903878135269198
H              1.783446062354476              1.6680210175287824              1.118410058587037
H              -0.8153426408548597              -0.96063833514569              -1.7090240719230698
H              -1.1285714919832301              -1.2767296291693224              -2.3763208444769996
H              4.6544772805947225              2.3168192852088456              1.1501767128971376
H              5.134380844201836              2.7264650952726304              0.7872492397105368
H              4.316030124258073              4.885926047936334              2.6168842980398406
H              4.668629749196856              4.5261185043139305              3.1156965148940157
H              3.115720635861963              1.678043477004107              3.762289807760173
H              3.3019790081271863              2.1423284649296765              3.2669937047606825
H              2.9130846060437134              4.482305423269169              0.8149073639337764
H              2.6766618161999993              4.029185700142581              0.2656655801524596
H              2.268220558009744              1.4081845357702565              0.651244486612299
H              1.7014946924384282              1.805836345366786              0.9889168298337933
H              -0.6252477515581637              -1.1751565709428526              -1.7373732433816718
H              -1.032492491431126              -1.3055204234902038              -2.289166781292499
H              4.629325796132289              2.1966397332301035              1.2819418999480119
H              5.090372864032955              2.4091002028042783              0.7551311940696225
H              4.229985944857082              4.908953003247841              2.8056451897912655
H              4.380841637498731              4.176042251667648              2.970496207173032
H              3.4490461379490047              1.689680174585081              3.67507861358385
H              3.0568772080835154              1.6428877417538557              3.051815564476024
H              3.2650758071067876              4.664668718975946              0.6119087139451203
H              2.913363113966651              4.091112482494768              0.3238400662887647
H              1.9666489719415665              1.3471676029149753              0.6445892277885276
H              1.9532767508985556              2.122322033267893              0.6528630929173856
H              -0.5358849308631954              -1.2456722797045279              -1.5857105482384863
H              -0.9214700040610011              -1.4147525533109018              -2.242912445209768
H              4.969605842322246              2.2546053427798634              1.7933642278257007
H              5.138960298197971              2.4316268982814426              1.1103038594594483
H              4.420032219396636              4.750066611038253              2.734876810011207
H              4.48197397137414              4.044483928390868              2.889631609324687
H              2.9886218997745067              2.065488720571186              3.825675683714642
H              3.1248270802110407              1.9323099087799287              3.0422949862553006
H              3.3414672418716544              4.616294642584721              0.6390006982959836
H              2.961487409970215              4.102570240694032              0.2539628067833795
H              2.172075044724704              1.198715533384534              0.8828166898813463
H              2.0374379628262167              1.8938473325920138              0.5754299124963244
H              -0.8826536566469716              -1.2734062700008735              -1.6127985314113769
H              -1.1979838712026325              -1.6666191998758475              -2.1939365633256447
H              4.981520109060427              2.3779492410797864              1.5352115595720062
H              5.0338392780920955              2.8716452684766365              1.0297023441654025
H              4.6322818645166794              4.7220818911796              2.542251093171838
H              4.516816942967876              4.1209115277798185              2.9469719450479026
H              3.136467323919888              1.7918084858251313              3.7011664059664233
H              2.8796489190859895              2.4593203421649945              3.3449349246942455
H              3.2268509935007046              4.78243618015552              0.29374412543028683
H              2.6000250526875774              4.369260803006183              0.3172766937368917
H              2.4499822021983264              1.1406181434541767              0.6879127471584262
H              1.7800446246810522              1.4388599924345278              0.863759788935045
H              -1.1269804101289445              -1.288998458110726              -1.9302914699623155
H              -1.2504039517585932              -1.7832947877560803              -2.3751342432429836
H              5.191355830470064              2.3156746114820335              1.4427437063826642
H              5.265726245164783              2.762084735695006              0.8555356153067365
H              4.427163474589952              4.87060494155637              2.851867953243699
H              4.232296046393698              4.160467853824852              2.7858253263473776
H              2.7578603722009087              1.6449303023808082              3.867258362925765
H              2.6977818481047375              2.124300012531866              3.21166475675345
H              2.929807023241227              4.513842228769112              0.10672453602845551
H              2.5747185254508103              4.008435056474137              0.48501903267957347
H              2.446392001819539              1.1853872667034262              1.0366206537399199
H              1.8700015846463622              1.4810955714403602              0.6903117976225674
H              -0.8966853921156361              -1.1869437494568924              -1.9313496445083003
H              -0.9533899755195938              -1.6909331147966833              -2.424565990779168
H              5.126875021756822              2.398856051690837              1.416797784134502
H              5.313792866367524              2.774852184899715              0.8359800238118077
H              4.530935244526539              4.836670827426826              2.7714800640903956
H              4.3936581309302545              4.196003939567367              3.097585371116109
H              2.5657679608228032              1.7243238928731655              3.769738470833588
H              2.9770952711671606              2.4148665376887317              3.5637460124017006
H              2.93568367209779              4.563271194415206              0.43810269484867354
H              2.6205331908643426              3.9698813955305265              0.30108848840983016
