72

H              2.3305000724638494              1.3707688222502394              0.5427056094472332
H              1.7965487938561049              1.7732795282981562              0.8264322469282562
H              -1.2184841501606059              -1.343070892785153              -1.6110056953968033
H              -1.3558778001972691              -1.6326969477835183              -2.2909655898449266
H              5.164946195416291              2.46821184979708              1.4157484978559707
H              5.04141097495528              2.410237141938833              0.6923388078362972
H              4.760388637997658              4.56054360690191              2.951330016874069
H              4.462383084656304              3.9021186560095993              2.83789337256925
H              3.200431591919873              1.8727517846231896              3.6787133105724674
H              2.625667752085727              2.300450257002136              3.3885630895701486
H              3.22710102414687              4.796279574678381              0.6549968086911905
H              2.8132565260203957              4.420896861778587              0.14477458270907084
H              2.310066297655556              1.2058345303615068              0.652826220804486
H              1.717167639732905              1.6566507592004003              0.6681568194495234
H              -1.5620022420286048              -1.1753642278160563              -1.7748826373247077
H              -1.3476593348991972              -1.5906953754393252              -2.3738587854546234
H              5.360271850638704              2.4328343501627154              1.3545144533228697
H              5.081103551409926              2.5473323089555193              0.6683086190499596
H              4.489449192107397              4.863611698969947              2.738920441048819
H              4.565441631227098              4.162260693003906              2.9610416539425732
H              2.908073477236028              1.913887271005772              3.904740265729708
H              2.87830609893887              2.5626308687386445              3.7092923185711113
H              2.913978264992263              4.55066233242992              0.7531710358708216
H              2.6758562454192614              4.346482534558719              0.06544221353805818
H              2.584983584182731              1.242925661257531              0.7767100350055325
H              1.8785864490383684              1.2690689603805705              0.651416673364223
H              -1.397419289579565              -1.0812172739215449              -2.1197362123025614
H              -1.2058015142944276              -1.6897726880029291              -2.5915063611273768
H              5.067183056259313              2.3858117425746053              1.1581381130688704
H              5.236609671443226              2.6632715290615825              0.5091258364835776
H              4.275042324154711              4.989800587317365              2.9185440148216806
H              4.431307365052024              4.2292653607786335              2.8759685712302514
H              3.30523775214998              1.471355422677395              3.5591005100574153
H              3.025911250530058              2.281113920495763              3.6422893615153025
H              3.009560071937633              4.404159314175833              0.5690795468282179
H              2.302904297438701              4.2523001537555425              0.36845490278757437
H              2.397572198558339              1.239395720424672              0.7268128691625058
H              1.8115312849321212              1.7071069233936556              0.8522975653635267
H              -0.9890973575568928              -1.214618805071346              -1.956381873988074
H              -0.7986057262645152              -1.520103745448399              -2.6540695655255484
H              4.860818270905823              2.4442903562561065              1.1443520996534593
H              5.236518201547037              2.2826166217906403              0.5012383911697686
H              4.126898762764352              4.801351374530807              3.1198856675266433
H              4.4847194636472825              4.182387506621261              2.991811348168839
H              3.2099204411172555              1.6962695986578082              3.6936678655665762
H              3.279418805744586              1.880339739901713              3.001578293419922
H              3.1682579142504874              4.329525703958058              0.8904801053540257
H              2.5663003160246047              4.137618397114744              0.39750903169135693
H              2.2083012843614247              1.4805103017839738              0.8542088778722339
H              1.942024830335199              2.0712136554429              0.6220463859069725
H              -1.0024966208114778              -1.436867261465721              -1.713510893431185
H              -0.9589471835293631              -1.3544120748028254              -2.4093809876340404
H              4.7747445875077785              2.1115121165479764              1.2311407706889534
H              4.981085900775755              2.38755961272084              0.5616422233511942
H              4.400632942664686              4.582325858460483              2.773089560032337
H              4.6492587853739336              4.098065092565967              3.3230207003303516
H              3.464900070980073              1.546530234051413              3.7051926642789956
H              3.2961466488557303              2.1943578239183505              3.2671142317849053
H              3.1850189664143618              4.640376594706374              0.9210253526326575
H              2.9527763520181685              4.419568084762672              0.2507508200881209
H              2.139656047610699              1.7677567112108767              0.3060945581189704
H              1.9274913689942494              1.7823323241708873              0.9732739207725544
H              -1.178306547810386              -1.3674983782454726              -1.6644080209772907
H              -1.4672513610373092              -1.3432284123048075              -2.3515966710347245
H              4.887639336365221              2.0549620929171106              1.4138654532709323
H              5.022043816811087              2.4933336976135982              0.8450481374238167
H              4.5571586513058815              4.668132332462536              2.7478818619544683
H              4.629744532570684              3.9518857507621687              2.890126805340224
H              3.5484690963914014              1.6040572640637114              3.6473512160581363
H              3.0045010786773516              1.8111681675573552              3.1921098953220373
H              3.213130774243151              4.5724998522922755              0.820391338881802
H              2.7976194789942173              4.2935805190314955              0.31516927294675123
