72

H              2.050625713669788              1.8444723955302835              0.2099851908055755
H              1.8228157794984663              1.373782953306501              0.7255271663914776
H              -0.7960391866395575              0.0504947940936966              -2.101639015594314
H              -0.14970732694042357              0.24652714350736846              -2.6272600586043366
H              4.686463988993359              2.043984486795707              0.6889643028665078
H              4.41360691518143              2.7013547991361606              0.6088020179873561
H              3.9339901492017377              4.279855542115924              2.6685549034768905
H              3.9300612378384647              4.64386084713757              3.3864547996624697
H              2.9597794898328478              1.3191994929564808              2.8647086716847086
H              2.715995661143253              1.983514311854665              3.1077770207872253
H              2.8657041982750027              4.343228419582704              -0.0010914325896957205
H              2.3568919372640496              4.365293218607539              0.5915465462697229
H              1.8140660762081846              2.013345558564879              0.36189072382778337
H              1.9804531246799308              1.4760037233744743              0.8606978331091893
H              -0.5513725352761554              0.132132295643968              -1.9107493031756002
H              0.025898401616735775              0.17011369519437292              -2.3146065115923142
H              4.645052446498328              2.053076533089106              0.7165549975625195
H              4.643540733986956              2.566979084807885              0.1842715973122982
H              4.3036448712629545              4.317915711195828              2.7281196757138675
H              4.071876659587271              4.248899693329619              3.429361388030328
H              2.8855746448778126              1.1477172849810857              3.198155034378727
H              2.902462212225076              1.844626386988177              3.2730144310928404
H              2.641382543563158              4.595039370221025              0.09217304957952394
H              2.592350371809158              4.229961996697257              0.7307772745923289
H              2.069023765218068              1.7749163863975286              0.4215839236492181
H              1.7046502703402193              1.7427484977843688              1.0602473257970553
H              -0.783792411387552              0.02574699965918787              -1.7152840219536538
H              -0.08578056761599641              0.11599969972410892              -1.948867848967612
H              4.453638807591869              1.8839487464355802              0.6284709118135722
H              4.6033567540560325              2.546151649276029              0.45805533334434995
H              4.175360303899671              4.093565604030916              2.8957193495206357
H              4.01744591473767              4.395732924288496              3.544909913435433
H              2.5999631993867784              1.4152774662432503              3.3322385036919377
H              3.13135150668584              2.0398996725757335              3.377689083373381
H              2.6244005766145357              4.4876758110615445              0.06438573670910726
H              2.6228790765148506              4.08445710154218              0.6420159486573785
H              1.9787070486033238              2.0878464650671336              0.16060972274040572
H              1.6267735458947516              1.976637722074698              0.736754391697277
H              -1.1398308701463047              -0.23100377692973045              -2.122605440176216
H              -0.4418513040061986              0.007100149430124447              -2.2054229474369853
H              4.8231651707262              1.9979091612372766              1.057380523116274
H              4.683104447965523              2.3327075251766822              0.356474013892658
H              3.722296571424976              4.437384472886391              2.7533403945842476
H              4.027290045152571              4.471746888968117              3.396271060825258
H              2.4530464761962483              1.42647560449075              3.29728891676814
H              3.018094807485261              1.8842855404807732              3.5161697377018912
H              2.9333012364921998              4.353123131632498              0.127696182920925
H              2.2737189218322222              4.297449521449935              0.5239248193895758
H              2.0599820066280574              2.1640334143550928              0.09802025341636662
H              1.7871123994911156              1.5622331449757185              0.3712751382567429
H              -0.9959600701926821              -0.2096054944928103              -2.1270969386957357
H              -0.40132464607067875              0.24944209474595644              -2.4074562771299877
H              4.342889499721375              2.029274179725789              0.9352591797126497
H              4.225979447838065              2.4209176159345245              0.3897609020082748
H              3.697140630215876              4.684016401862762              2.6471840687875874
H              3.935358300968516              4.392152822484907              3.2432271888152813
H              2.4052297202717816              1.6595024951835902              3.46766088181801
H              3.1121389062615306              1.4179720127916782              3.5325592462270348
H              2.6058381823774863              4.49659138383867              0.1204904011296506
H              2.268228149607725              4.220165317066512              0.6946942899257124
H              2.040660703671613              1.9574012791355095              0.1864629541846848
H              1.5202153952596813              1.6009823716374452              0.6469992310310743
H              -0.8628138748497208              -0.07819599527449084              -2.0308346734311313
H              -0.30995432706647              0.1560529934806915              -2.5512942687821027
H              4.5851355790983375              2.024270046662502              0.8911038193777114
H              4.343656716163738              2.58688978295005              0.5973387606945408
H              3.8209594517191756              4.719378502529141              2.514990316995108
H              4.13022602935644              4.555349913149843              3.1487917119320956
H              2.5924327966267984              1.3212194139942766              3.221753912607382
H              3.170744734471198              1.692163750091988              3.2640138091863857
H              2.717732045486714              4.630499786273403              0.15208252173381015
H              2.344926852322289              4.746516893920247              0.7633435019458931
