72

H              0.9617678836373235              0.8281449296767398              -0.2855599257645827
H              0.9585960793618754              1.3862059550283823              0.16998483642200501
H              -1.3530442525864714              -2.08482830542681              -1.989321687435213
H              -1.9797706596041502              -2.127189783786008              -1.7037422506059454
H              3.6234944506315774              0.9743796339302441              1.1382135101435995
H              4.116936144806095              1.5063790696452664              1.0098438232757043
H              3.8036370870970875              3.955873841969862              2.6724746920572287
H              4.379696592628164              4.123489134025084              3.0414525786207434
H              1.5962519521882623              1.9488259402885342              2.9087144340929054
H              1.6874508153840848              2.2053979231264313              2.192772777621637
H              2.550198321310079              4.1076079645585155              0.3432616521704298
H              1.8787522241887835              4.013075578276239              0.04774489183818081
H              0.6784185883394052              1.0320258367439756              -0.2423162342093575
H              1.3139315754964018              0.6671344220058323              -0.18300271652191274
H              -1.292071599410099              -2.261307757218014              -2.3113302139346548
H              -2.1484840159779783              -2.210286244378205              -2.0118942535997273
H              3.8825137469043063              0.8670016193681475              1.1590757327400336
H              4.518315625833602              1.4400504139737327              1.2277333258800676
H              3.659580218823441              3.9916728025328547              2.6399732455029654
H              3.896216161300095              4.1575448210394725              3.328980647628568
H              1.2628326264563796              1.9458178708465328              2.53614595084447
H              1.8126195204447981              2.3168791484274727              2.5186482769754317
H              2.632458473384771              3.9127295186696824              -0.2512060916154215
H              2.039686564668855              3.9576912582253168              0.1511382513878528
H              0.5334637592924744              0.7403855053462776              -0.3521735056358439
H              1.2235142378915513              0.8165524937614811              -0.272832174411019
H              -1.0595157549511467              -2.2347589901252105              -2.5774643840786537
H              -1.6267337745202486              -2.281491641559195              -1.9790096488128017
H              4.010243995553485              0.8145582344546946              1.207596891698615
H              4.342617094482144              1.4396367028988335              1.01676414358089
H              3.556973980865201              3.9115040669618706              2.625637032727285
H              3.751606618222635              4.310737468857              3.1094465056961837
H              1.8386887002506207              2.1586237675905435              2.9227342359901765
H              1.4145578130669596              2.2993603265929403              2.290648968877857
H              2.5146445243172546              3.9529185955988257              -0.2874642504766042
H              2.012018407107388              3.87528824096719              0.23595029591951766
H              0.6467254927890611              0.9685031281843762              -0.328957813938133
H              1.2896981277284332              0.7982830836784023              -0.588701470712476
H              -1.1287094623617802              -2.1011878456653648              -2.35305281601904
H              -1.6289370762926558              -2.4171644932898317              -2.038147870277407
H              3.505407690308293              1.2059703131689354              1.291853437569445
H              4.076120877578913              1.3994839177921101              0.8406870437203865
H              3.68630047104793              4.001811560006582              2.6149053108360865
H              4.214381071368425              4.23813621462269              3.032012851539774
H              2.125619821644443              2.326646453360332              2.925983935595894
H              1.6674433858263042              2.054189156301523              2.3391574254869205
H              2.6997759537913684              3.7408926568428553              0.1534365836806029
H              2.064413802909961              4.118456716538382              0.3778879794715676
H              0.8380220059580668              0.9363257697538419              -0.15833881779813572
H              1.0937154562997005              0.7950753442883342              -0.8035933201680566
H              -1.1874027289095974              -2.270580854003426              -2.2879793754656435
H              -1.8089822555547868              -2.452323767529355              -1.806333903052759
H              3.853999920034348              0.9356800649652244              1.1466668227701635
H              4.193780499764245              1.5396840268614866              1.213451599157192
H              3.624850530055519              3.8346114906263615              2.8019049278365067
H              4.279578512677179              4.112547129165665              3.0587431619156114
H              1.6196923989343595              1.9144566116067385              2.8546962598353964
H              1.3590616452448383              2.2556347048523313              2.2409195230756804
H              2.6110167722890107              4.422780881272163              0.2257700607842286
H              2.101314036441933              3.9835886041928146              0.6155496402283928
H              0.8021527937444098              0.8883848060757543              -0.38240864993894275
H              1.3317822965924095              0.9719933567465393              0.03517513968079921
H              -1.3424909056882806              -2.077416747896963              -2.191792195832955
H              -1.7404714596021105              -2.4517925198902435              -1.7205749245238824
H              3.6781763091044595              0.8363317503287826              1.365915500924592
H              4.244563715532034              1.3309547724013622              1.0869898637445823
H              3.874761164731789              3.7940129102111695              2.716008203691825
H              4.272979230408018              4.1306045537850204              3.1892749326224825
H              1.3202644567142758              1.989426529635192              2.7490965599603556
H              1.8509397893502684              2.2560912249326046              2.248351104085243
H              2.413206655637599              4.343345280900871              0.4553078533750956
H              1.8538836598445212              3.8373951731082623              0.35948620045325064
