72

H              1.9027881815468959              1.9535369874053148              0.26223603664447537
H              1.8622874428246887              1.2776955925000024              0.6768502634034557
H              -0.7647542860628035              0.023362576335101373              -2.2085004817806673
H              -0.17899581145696514              0.2228238125955233              -2.514939504580726
H              4.822300365791581              2.068606185555848              0.5693870128330841
H              4.43796830100045              2.707379349879923              0.4844737343377885
H              3.8666771120954126              4.354666146533929              2.690678829671841
H              4.001899167750244              4.70396460941128              3.2587667949737824
H              2.8911620575417722              1.3669469847385316              2.8667016647391312
H              2.740271280893023              2.0674586644215105              3.056201985676821
H              2.9025404266227683              4.346213626546091              0.12308370641868104
H              2.333863812058064              4.338668795255115              0.5311170084107051
H              1.9096288686137661              1.9283848523670795              0.29726927121134766
H              1.8795858109307348              1.4361457806752573              0.8437327631129257
H              -0.7277945622922041              0.11589186756472097              -1.9651878859551923
H              -0.0518934898566668              0.0003613435925763486              -2.360663079552969
H              4.444047947626171              1.9779449239309088              0.6780740447421137
H              4.758514765991134              2.555066497075031              0.26976918609314504
H              4.193083398688237              4.1206738404152405              2.8087534544367747
H              4.096717083142699              4.41969784789843              3.5152669829055294
H              2.8195589949455107              1.195942647467915              3.056045630410616
H              2.86637899797491              1.9623015753932564              3.2683163806592552
H              2.5584085267175136              4.640832934300162              0.13562778635898293
H              2.4948252705543505              4.137148461592151              0.6676348823560184
H              1.9699101888731463              1.7683017387948885              0.3154409158347162
H              1.880237994425828              1.7185902339324064              1.113085761244031
H              -0.8151743469477419              -0.028391532430289825              -1.6228847933854387
H              -0.11888197016062652              0.09976638954453691              -2.03014575441437
H              4.50746663845982              1.8163878635448234              0.632531508115034
H              4.575381339520005              2.5518161938579924              0.5159057184942148
H              4.253509613144795              4.1110681194801915              2.810843995803024
H              3.9838657057954623              4.311077680995631              3.4586250450495055
H              2.5699227817796255              1.322654702431009              3.4427065116844533
H              2.9030344485633255              1.9138826164103155              3.391840000803537
H              2.540274416213075              4.434176658517199              0.11578998340047514
H              2.5548467821150265              4.043341574296651              0.7552019449302276
H              1.872735381959424              2.1186431875876113              0.1374540448122496
H              1.5315160955247282              1.9149344317803814              0.819322574334875
H              -1.2458363555292105              -0.09433832434672816              -2.0484852966281393
H              -0.5046863511879826              0.06416816150641388              -2.161617197015861
H              4.848367482584023              1.9742819326655956              0.8681574181470183
H              4.649534468405837              2.3066239098441406              0.2904085917645091
H              3.6969467469797803              4.472150462695001              2.6826621393254313
H              4.069190542885337              4.412440636978494              3.340158202627366
H              2.417303124441429              1.5474729308237314              3.293365322038104
H              3.11520360732666              1.6480953686105941              3.6003682909692105
H              2.8117563200820035              4.290106459300255              0.16429139684239125
H              2.2702720305054545              4.429696867134128              0.6069049827707871
H              2.0840262271471226              2.193025609356443              0.09242338225836684
H              1.5775135270811234              1.6151015552340384              0.35763925410013164
H              -1.028096227634041              -0.18530558706415073              -2.189614156791911
H              -0.46843961430656333              0.23765612885957482              -2.3669970286346564
H              4.200112535086995              2.0079327779385765              1.005305675908398
H              4.206070053541015              2.41184815447102              0.342263628372589
H              3.5387426481173727              4.581294108105255              2.6552026780047866
H              3.9383771200642355              4.406518792738836              3.2958377124842517
H              2.4003900327904883              1.6492792201919984              3.3986495858162704
H              3.087021698742099              1.431834327316812              3.5121115905756155
H              2.6189873835210267              4.46974757153118              0.06086866479277191
H              2.292896371419637              4.26078293282345              0.6779415817863662
H              1.9990863526943687              1.8590700545542485              0.26879594332032214
H              1.4759536286514445              1.520871837028222              0.5695563557653051
H              -0.7593696071085535              -0.08640212481428805              -2.1237926943355805
H              -0.2810563417421182              0.1599041078977995              -2.546749346379644
H              4.58187324726967              1.996455020337163              1.057211873178703
H              4.293224508343139              2.6587174832623437              0.6865966732540449
H              3.819000463520689              4.707229461361927              2.4559092849011592
H              4.040361661577012              4.5949209881956135              3.1668913951648596
H              2.5645939351844786              1.2164473326043765              3.1216762026520795
H              3.104519060613523              1.8197623456118217              3.2613998326364233
H              2.783589720658758              4.561351046858402              0.1702893509455274
H              2.3834007849079724              4.645212025221287              0.7992448289531057
