72

H              2.4754135308673786              1.6034269868186513              0.7529257309362429
H              1.8141510372877117              1.3155559082242956              0.9179665120626831
H              0.7133266055486128              -1.13045369854201              -2.1822080445171235
H              0.5072917692172401              -0.4739540332784041              -1.8074954318210916
H              4.592610743818183              2.2698412305932343              0.9207362060720965
H              4.90359255802921              1.83735755998203              1.4370008846214197
H              3.4711648785561717              4.5645164086442644              2.7246684651524333
H              4.144102850122249              4.379890224404523              2.9685362260633976
H              2.9181693002258715              1.8386346428419713              3.4189247602127515
H              3.08938857827227              2.0974967976868983              4.102158460989089
H              2.633294904523229              3.9872422762128474              0.6759402975933897
H              2.7909221279091976              4.249952249960592              -0.006100686349225447
H              2.3521606613573645              1.6080441112656516              1.2212735889691202
H              1.6703543949849056              1.431068812544436              0.8163229626587596
H              0.9514228343031069              -1.0279532178264639              -1.8169291028547454
H              0.600731371342194              -0.4420336844640443              -1.560629586804685
H              4.776848355558823              2.28767040277673              0.7778989239521726
H              4.768950703989124              2.0189011725234374              1.4881331632025399
H              3.8639195430237616              4.315574759996164              2.941534011023548
H              4.499230598185164              4.664595759350671              2.9530753454190184
H              3.385182406868735              1.9895875163347656              3.346919349961541
H              2.8636552836104423              2.245768077615003              3.989845926498517
H              2.7863300022293647              4.293473347435601              0.6723113319013017
H              3.0107019372467              4.323887126722841              -0.029377587726593
H              1.9850138752607498              1.4063168847661793              1.242511975112172
H              1.57576914212271              1.7357564786557458              0.7140582210570812
H              0.57067182221533              -1.1372492475727225              -1.6967005855071833
H              0.2816650582247999              -0.487044651251861              -1.5224682441677928
H              4.601286066303603              2.4991824566013032              0.7982840235130718
H              4.838047687942968              1.8256402186776162              1.1497184612854048
H              3.7207401874001094              4.558665695981783              3.1071715912874383
H              4.4378373246200145              4.726814518975402              3.035240854486692
H              3.372482910743349              2.2078840534746376              3.575579894639208
H              2.7735447029870293              1.8582706953618948              3.9170015648598664
H              2.8936852064791405              4.307326364887981              0.709974713883746
H              3.237715834426896              4.181692405988715              0.0543205848283823
H              2.2850244303816742              1.1795759672894524              0.8499030817202115
H              1.935682706179404              1.8064326833103879              0.8348738802636777
H              0.678553105963408              -1.156324223864448              -1.8481132620324021
H              0.09477962701020434              -0.966285269280318              -1.6436925880962314
H              4.648695433535394              2.145011428375511              0.8286800806436588
H              4.891339494987297              2.2876199701793185              1.5066801199316244
H              3.6850914021174033              4.539336733078823              2.781460903663959
H              4.28800095069528              4.747756603838066              3.201153944831486
H              2.7776449777553442              2.4027920086999237              3.6397088353176037
H              2.5655323974328246              1.9217225852574082              4.118027531262367
H              3.038528947367646              4.201117266964249              0.7421518605269618
H              3.2274366406033472              3.9168869004951326              0.02112582172456728
H              2.5274289203545695              1.4821072651100005              1.075370854960927
H              1.867226394173407              1.3171775980399203              0.7126893090266416
H              0.6900124366075744              -1.0018906412054815              -1.8437410908605312
H              -0.0733962198256593              -0.8737046883244705              -1.7779333762386258
H              4.787576191611522              2.476131556183324              0.7962031151677528
H              5.045736249703788              2.2046030435623685              1.443160386216015
H              3.8079555859531764              4.48630620028959              2.6530431178174023
H              4.262932113230846              4.941243341941805              3.0290913307937153
H              2.6005681571144645              2.5371047855913864              3.3328131665671714
H              2.958788816078391              2.4345189365732534              4.036472753357294
H              2.5358978154836644              4.021492432251963              0.7961926657797889
H              3.1083284508285636              4.065364432389055              0.2712056210886976
H              2.6323866391977933              1.5914382067749175              1.0501292680862764
H              2.0482899238057137              1.4284405734452135              0.6621267454499754
H              0.5624728421707937              -1.0513352507069176              -2.135151260064013
H              0.02583070750051303              -0.7184599446139738              -1.6832535553591197
H              4.442344840191838              2.4796449686199034              0.5385855521653545
H              4.832110589946852              2.117569601569182              1.0211909328247057
H              3.543338397952264              4.34217946970215              2.662779934531151
H              4.0235505959029405              4.753911414710274              2.943288137764691
H              3.0265334633890153              2.5587337792957787              3.335637017137176
H              2.992894470114756              2.153521452038832              4.001473309623265
H              2.3888946975507293              4.100681624571075              0.7426133789350648
H              2.8835494035713323              4.035647550740922              0.11269296790014798
