72

H              2.5443810001659344              1.638702421481075              0.9945316047610191
H              1.887208453195835              1.6344198544269564              0.5838113311177143
H              1.0878044524623665              -1.0229500190309022              -1.9055383727287978
H              0.4325429642525458              -0.6732055344313049              -1.660975013494085
H              4.851237966729759              2.666597638311277              0.7760235751495321
H              4.738687665836696              2.148966982633205              1.3356857769300785
H              3.810890133836582              4.625402478066702              2.996803281442241
H              4.5169487475636245              4.788052134978675              2.925427825854931
H              3.3690937829868868              2.0833439060128454              3.375385906629078
H              2.732400821138598              2.2262123207998097              3.8604834463678213
H              3.0740590317744814              3.858951693601815              0.7065620023959552
H              2.7826289126151718              4.288588143085449              0.12090511063289944
H              2.480475385187958              1.3695043791593142              0.8672637055504795
H              1.9930627839659945              1.8358583614277832              0.6274684967960253
H              0.711146412862001              -1.2626679738814133              -1.9533926010807106
H              0.3388278962890807              -0.6798559700743321              -1.8565086038152234
H              4.572151444198202              2.6594884498727445              1.0347911086413737
H              4.9158249530746865              2.065388561812115              1.1991748491664231
H              3.6521294645156233              4.546203910383063              2.972361112969586
H              4.373280376503033              4.517565445384919              3.027779272106379
H              2.9628471441039097              1.6740973520076423              3.5000732586812084
H              2.889087861354765              2.0929209119276604              4.198672725603269
H              3.0076635596540218              3.84797293698557              0.8347787867839425
H              2.7023271663476534              3.99452685596843              0.10547707444130087
H              2.7341734461330396              1.2759138921104491              0.9139721929044458
H              2.06173293264061              1.5473961422253437              0.9856795583896935
H              0.8830329507215263              -1.0918561128810063              -1.8365022326860259
H              0.3307010688083681              -0.5952880893043917              -1.7476264959522048
H              4.573272484128226              2.445026554682973              0.9199605138136109
H              4.845796391775428              2.1162485807253737              1.5099597921737684
H              3.895620158807243              4.141936622931248              2.965848763960059
H              4.425497849219385              4.675775774118785              3.033285136000342
H              2.89299450419326              1.831953658415497              3.3507058655480577
H              2.90380333503617              2.219452416497702              4.016414673128157
H              2.65119039833788              3.9602489038306645              0.7667566152168018
H              2.883221796254852              4.0081361194888725              0.0328833082929286
H              2.2979527873644616              1.7482269332784932              1.4036835089698598
H              1.8673169986689977              1.446876495827907              0.832511722751436
H              0.5864286627308122              -0.9283219911100533              -1.6533006890906268
H              0.3131801028783294              -0.1891875041665961              -1.5950032539144057
H              4.611487512638421              2.45727610815787              0.9029719222114272
H              4.8403597047890115              1.7478574729894252              0.967627011138833
H              3.9176832273907225              4.338394385497757              3.06761239732397
H              4.37359840933617              4.849138081236315              2.948948658287058
H              3.387683196035293              2.2349293823524152              3.0874675115187085
H              3.0751676474852574              1.9761204294270296              3.775396122971843
H              2.3690038540384024              4.09581683119068              0.5442785904603353
H              2.9993227728810923              4.400769505902721              0.3638341721955341
H              2.4126042287794833              1.530271025808685              1.0466933127577038
H              1.8530215277683117              1.8312098513776007              0.7556217638483114
H              0.6809623053539627              -0.9360337965083371              -1.958261029459006
H              0.40625062965467984              -0.3465845413252337              -1.5346180552191113
H              4.35361166919063              2.140938747623637              0.747073511145205
H              4.694208574345125              1.7718694934856467              1.2990559841038425
H              3.5214516318708475              4.650399424849194              3.024630795096506
H              4.254747067322878              4.700072208230127              3.1015064643564956
H              3.473400895008048              2.0879161257008954              3.3429903319584686
H              2.8608570979253436              1.8205246335724603              3.639350254066091
H              2.669024523768596              4.102204083206553              0.49369532294710033
H              3.0244117972351754              4.34996461932115              -0.09845148085406134
H              2.4470439266845436              1.6630175162819638              0.9593159910306687
H              1.740783808632376              1.6200610609489638              0.6628056863269884
H              1.052764569008261              -0.9485536936590302              -2.0003212662924796
H              0.5880660454406339              -0.5228005702170291              -1.7671096417270518
H              4.8415917306033736              2.326688290282975              1.1034094755018051
H              4.888921260800108              1.899095077413186              1.7579789260919372
H              3.771681846927368              5.002692604984075              2.8978250993986867
H              4.41273977345829              4.696773945361505              2.991716563633365
H              3.085382817164178              1.724592911235125              3.1705745371188074
H              2.964992124918323              2.097839138388095              3.9028680547523584
H              3.005474094755404              3.929306190038613              0.5615990038789038
H              2.9236900213849455              4.483653362317155              0.0848958933711038
