72

H              2.1896544442518184              2.207072204318055              0.2761066426087354
H              1.9584220034636173              2.0484806431862896              0.9789476294767792
H              -0.7067955919071688              -0.32359640705785886              -1.8640705789885375
H              -0.17443497731376678              0.27476229521109474              -2.1335182803152812
H              5.201062545486348              2.318688074870068              0.9249199641448452
H              4.600135534002549              2.2323210166370733              0.4004637535614831
H              3.928590830617104              4.764104767104441              2.9212798033387704
H              4.213761164134742              4.104795081811426              3.303148543130334
H              2.705220899678861              1.8899706631202087              3.43042821559802
H              3.3716990303242023              1.8919271593542373              3.1320191132635262
H              3.1472682943903996              4.291169926714127              -0.007659110593109948
H              2.584162456157092              4.528070020021651              0.5206133466968041
H              2.443958794149332              1.8841936013737015              0.3059497140115949
H              1.6804259568489155              1.973344637216041              0.3749865089059206
H              -0.658309630125534              -0.27516896392795875              -2.129006029538431
H              -0.2780829758674046              0.22399200156489874              -2.3805707590511433
H              4.623913495914259              2.149302002622255              1.170887925684888
H              4.492090079479515              2.3797591607087014              0.5491824943522263
H              3.8406044729997038              4.778184095277308              2.856140459320663
H              4.040935093771176              4.254777965088137              3.413165980741139
H              2.6802067594459973              1.6979524420114054              3.373194197463288
H              3.4570023529933382              1.7344449587025996              3.353328543968079
H              2.7818010043949033              4.464093281737538              -0.03559465307898037
H              2.4496862156937325              4.596854517554941              0.5967583742752246
H              2.290142264966397              1.935596438497748              0.18307370826029745
H              1.989420137084064              1.7560353558800663              0.7979977062727575
H              -0.24399906240467242              -0.21736925199927973              -1.9556246392468215
H              -0.06298889568244338              0.2752113958813132              -2.524832894179532
H              4.986553218414631              2.2231971703206206              1.0611313641074223
H              4.322566634167263              2.550445046831566              0.8378028678118472
H              4.262655275031466              4.951088048741858              2.8283123401553305
H              3.9925471196560705              4.242355130316387              2.9370301912997157
H              3.017028499813049              1.2898946295875622              3.469571373064794
H              3.104955320661267              1.8952894715510324              3.082268487411839
H              2.9228616270201218              4.5065117994086              0.1248226163420563
H              2.483980456790948              4.822270714715003              0.6509905941205304
H              2.2002842478219673              1.9436457724974558              0.35141203155986833
H              1.9115826406909426              1.5689068759114315              0.8577588470003216
H              -0.44153465591350344              0.034991979947805174              -2.0240070951219065
H              0.12698570286026306              0.38705728265717404              -2.509386321000978
H              5.12758215557838              2.214522126023681              0.8039269253699801
H              4.57546856593325              2.675044402004252              0.5316297314593671
H              4.273789057694752              4.694256140489923              2.7473981103759195
H              3.984254522896164              4.279310867699517              3.274242471541046
H              3.073161127665497              1.3308024635895346              3.0085314854114666
H              3.421234966362418              2.076096088962766              3.1694463335417358
H              3.0192791070839995              4.469858004636964              0.07719338148103563
H              2.4805983425433658              4.497845714855085              0.6103580096537518
H              2.372299889510024              1.8856655131994429              0.38090468725113674
H              1.9236964405689951              1.8953892478049124              0.9545611020233175
H              -0.23598175337279884              -0.052504180905990745              -1.8415389957286707
H              0.24932860262577808              0.2927325071615252              -2.2876052696882594
H              4.715702288108646              2.2346032960024766              0.9450676118462092
H              4.689974433581671              2.5492474913374483              0.28190435217256427
H              4.408169339865165              4.30348231991855              2.9202018849567875
H              3.9729961919378227              4.013410086228091              3.4412739746730763
H              3.2098913672195946              1.3001705392524352              3.3620831698080087
H              3.1127739110226718              1.956532914240325              3.1863154552253357
H              2.8697273120787754              4.600118863993145              0.028014744024561517
H              2.7306891681002483              4.154657312504913              0.604791965040104
H              2.32806283880784              1.5966701191578525              0.6524961900361264
H              1.834705898862754              1.9433432358633327              1.1273279239663838
H              -0.2756334317398557              -0.05183791784017622              -1.5379056970082112
H              0.12505028362747236              0.18285723402462925              -2.121540740525494
H              4.804452131452928              2.063205806335962              1.1383495602172895
H              4.731505193609489              2.5556259118242535              0.61133603661701
H              4.563474436563709              4.2959328125210625              3.0426050147163264
H              3.9667520073463445              4.0945578461079855              3.4629715643224803
H              3.065429818238469              1.459365846936291              3.2820403435759653
H              3.1550416394937533              2.1677001782626              3.260022106592682
H              2.8571273219829063              4.590183755467639              -0.02692890946732867
H              2.8554192391499944              4.253722036592652              0.6460292173777306
