72

H              1.0172857055406435              1.1056515603996193              -0.4664558577108153
H              1.5163957927333764              1.165411449887578              0.12397164267141883
H              -1.605157754601794              -1.391152692024379              -2.2023834619588185
H              -1.8829359349213355              -1.5810518740427524              -1.5554506691419399
H              3.321809814570284              1.4882613334989023              1.0487852315776236
H              3.9768832196309347              1.8568685536037701              1.1173291532376133
H              4.1110764555617685              4.456926362802278              2.678877965395867
H              3.912854581504944              3.797304556506767              2.6885117442347193
H              1.3703705573882707              2.3636103723105757              2.475575047373922
H              1.9767564266071835              1.9679454788239439              2.434823250597337
H              2.1621227368432088              3.8404597790273223              0.6293248177289019
H              1.5205480585896027              4.049874545047233              0.8585741728567219
H              0.9865511301307576              0.8212843929278383              -0.6525725341679592
H              1.287651658661821              1.2521757435740395              -0.03588685157851799
H              -1.7695875779243104              -1.5223910326721146              -2.5472846439974544
H              -1.9164647575881852              -1.5707753855161786              -1.7531835425576214
H              3.9672254611144613              1.3137527020237167              0.7605499528218902
H              4.3243210478283105              1.855578448125656              1.228245072808376
H              3.859486750348725              4.692298407203531              2.5163970928959882
H              3.617659213710116              4.131918909117492              2.9073521241254507
H              1.0760366094764513              2.3260058067653673              2.6353577366076473
H              1.683770230218809              1.8765513301252335              2.504145496029603
H              2.229422349320697              3.971552299793411              0.3741037986441781
H              1.550169070428517              3.984388168917612              0.5003807251505703
H              0.6225368633018973              0.6203843577880906              -0.33098355395024914
H              1.2996315174756505              0.9478428852676981              -0.1753666254488088
H              -1.6883956190227027              -1.4720409094663947              -2.8037891574822438
H              -1.5496569487845067              -1.5538084720515914              -2.094650776193568
H              3.8795853670368308              1.2878152965129532              0.8626724784824088
H              4.362834369378559              1.8459181042396475              0.847495351272782
H              3.9895216209781905              4.717266346732944              2.786142079539966
H              3.513344480885682              4.242610998814212              2.809000079001826
H              1.1220510821225043              2.286499137977824              2.692253501459171
H              1.9204851085416657              2.1038618388159804              2.5393460870158244
H              1.8987407451851028              3.843767388901863              0.05707009051936729
H              1.7854173769432122              4.138157472946984              0.6855117845387546
H              0.6917246536377445              0.643139388295099              -0.42969244328730744
H              1.1144230259825556              1.0685376537835911              -0.028682090086488914
H              -1.3440205861062198              -1.2505872151163993              -2.441573972229521
H              -1.22979077863962              -1.660868483954238              -1.801901781522643
H              3.8590881099190786              1.3988582185652665              0.7766910377169218
H              3.970111627808978              2.188036212805311              0.8684756237141927
H              4.326541255146916              4.471980318408504              2.5373241164798355
H              3.8039931543597842              4.161473371450944              2.952643649837262
H              1.1974109791502698              2.3993165743778615              2.9151410801005273
H              1.6918377700008407              1.9013488646425203              2.685763763653733
H              2.173501196455848              3.970226885339073              0.30495937472150164
H              1.6849983910019208              4.153385830986153              0.824129822822171
H              1.3179554508656124              0.6945483804966912              -0.6033863298760357
H              0.9981232300818436              0.7177132856176285              0.006646814707377567
H              -1.5121445819289776              -1.2442083174969274              -2.224910297842582
H              -1.4802854365693512              -1.894673359195571              -1.8188736562197354
H              3.982870159435106              1.5046609995866325              0.8316344388806423
H              4.25022083801678              2.1222981591346737              1.16377473486715
H              4.301862632070418              4.295616462905503              2.5086938360492392
H              3.8810604757017098              4.022495236442334              3.044948977463715
H              1.1800398469552333              2.3820046558575463              2.8368848605831105
H              1.6997522327273904              1.851993258632075              2.6142003903777495
H              2.467338449621618              4.105540974643783              0.6915200787563403
H              1.6923572641899103              4.096728657434491              0.7636617402320968
H              0.7970526949109025              0.7809122194904755              -0.4234851691227493
H              1.2419602095407074              1.1664536419841587              0.06720702484517681
H              -1.6040418196923174              -1.4631455691199136              -2.2926873058713046
H              -1.5804788728369987              -1.5725870227644838              -1.5540510260741165
H              3.62516817021797              1.477910120599137              0.8107147859579832
H              4.183017530072912              1.9470050912179304              1.0077621569104351
H              4.141191230652943              4.3337229595326425              2.672212533763913
H              3.8048342268801423              3.678672730133577              2.8027016668712132
H              1.4544015501352214              2.1459189683418156              2.9641167237596373
H              1.4436618880822791              2.1301925281173526              2.1628783298067544
H              2.17650991217144              4.146930977809702              0.5322217144647134
H              1.5981774169498155              4.090165551960493              0.986163502033125
