72

H              1.721485940676703              1.4853739864692395              -0.32812018389940434
H              1.2269609333856946              1.111027599942601              0.12598070419406585
H              -1.5290712495746157              -0.42907952131290467              -2.5196867025894414
H              -0.8940162441965809              -0.7150197323613556              -2.2405244203864485
H              4.490334757205255              1.687931315417152              0.6183935185961984
H              4.634577536469236              2.3555867244475315              0.623164150684917
H              3.661743226732897              4.404590734220289              3.162574452481474
H              3.8376417851529805              4.556057604316754              2.522655407694788
H              2.122807511525347              2.0987883418815336              2.39607211601879
H              1.9205663645496416              2.1047950150651604              3.147414693340127
H              2.1980398981513627              3.734202160323036              0.4775695722508759
H              1.5847747981082096              4.07266395223128              0.5977337976546672
H              1.5676122555036125              1.850993359492507              -0.34504976659464903
H              1.2718794151248554              1.2687964816121606              -0.09334216416880967
H              -1.5625006230350005              -0.47724173995204305              -2.3343070764440452
H              -0.8939050236115489              -0.7489750651174306              -2.147006900350173
H              3.9778521221178913              1.7477801964261124              0.6445859650139045
H              4.4164868547826694              2.359075998839614              0.7606326059477634
H              3.66361593346466              4.012618931664393              3.0190051524031998
H              4.047145751475485              4.471065018740482              2.604656383940307
H              1.7637743668204822              1.7724003122424732              2.5503336765793327
H              2.003225711769322              2.109714050891614              3.2177830368850016
H              2.0127881815608233              4.064357957370192              0.48447291471049364
H              1.4074053683624423              4.02049447456847              0.9158811287193744
H              1.6849790510234155              1.3339383626700445              -0.3656412678436011
H              1.4718733392303318              1.2759050356412567              0.41239557863679793
H              -1.6599420509948666              -0.2596617259664187              -2.0732337441822577
H              -0.9382585838877823              -0.7174540025930198              -2.0266405772563947
H              3.971569553321275              1.770512496330769              0.7848347047845334
H              4.214649339558133              2.3734860532149984              1.1066923919391587
H              3.7770635298017448              3.941920164415885              2.8735700795614094
H              4.114445976020546              4.468765605150225              2.5133754463056834
H              1.7174346000504581              1.8060484001103954              2.504399510459685
H              2.1269937639914778              1.790205192502019              3.2157276491391196
H              1.8433093560455736              3.8620580303328955              0.5204821238695272
H              1.656660906819746              4.197645746754627              1.1780989211690784
H              1.6181407583220582              1.4669877730287777              -0.24066774094164164
H              1.467034077440385              1.0967700468831432              0.4135070596084807
H              -1.7400694203410791              -0.32949858824466016              -2.2771542301198973
H              -1.0797661545917725              -0.4084540365169262              -1.9550978607529994
H              4.203364144022437              1.7198131136588677              0.565098207726427
H              4.520260759346193              2.329378365960996              0.5966982678096913
H              3.5280268911174772              4.159453339111297              2.9398291921400324
H              4.072948678505487              4.373563471244404              2.4426052789595856
H              1.9214473944873478              1.9570571445498974              2.3088607939297425
H              1.9252249700475847              1.7263821906705752              3.038001703705855
H              1.9100475019102234              3.8598221913988193              0.38193201041001434
H              1.7106992553036935              4.3827117050489255              0.8415353603756522
H              1.9280006323720174              1.330339123673964              0.09258916782457774
H              1.2401214364746644              1.003855223326084              0.19113721313777382
H              -1.5179092770889315              -0.357121148986524              -2.4723731726224667
H              -0.9589168670917705              -0.38659854129189714              -2.0280541286845613
H              3.8172787765726              1.8409088487247152              0.6325100852631261
H              4.45921213278486              2.0804767377023357              0.734973833716736
H              3.5976638299781              3.9967292443756137              3.2288368525367135
H              3.878995884034145              4.501148426897847              2.7626527926389692
H              1.9751444723247056              2.239428488541029              2.274514208804557
H              2.1190856872489663              1.73951025053213              2.7613511250613065
H              1.9309738128404856              3.8783666301596753              0.09779120371571373
H              1.706152039372953              4.117759642958423              0.7524543691486697
H              1.6983735747178452              1.3080306672920403              -0.21535806614060501
H              1.3837426336907206              1.1975712155664644              0.39065085152961504
H              -1.2929621683815644              -0.578827691866882              -2.3600385998256797
H              -0.6416712189484487              -0.43106686820589213              -2.068830540146176
H              4.310231034122132              1.6729902977613422              0.7772740317576762
H              4.667146782413875              2.3625643152462463              0.726222365546244
H              3.6999041109064956              4.2656121122786494              3.1563426633484597
H              3.899408020848228              4.5686124235357255              2.5206977128584156
H              1.6107261232613757              2.0991250585398458              2.586667353665307
H              2.21789647902964              1.857559543725032              2.897334202345036
H              2.1219649066293864              3.8136593672818684              0.1612221036818724
H              1.7692995675866798              4.004587115156746              0.7856658538820708
