72

H              1.0434585658330469              0.5629411880290552              -0.47854413226070297
H              1.5330490863749937              0.911841073279516              -0.01069890573818269
H              -1.0122711924063208              -2.65097719417366              -2.0395877046007134
H              -1.7766847206164558              -2.953384866081556              -2.0882050731479325
H              3.872886553459356              1.0407057463018343              1.52904607965565
H              4.530645109685132              1.2422261628657065              1.5346366817079318
H              3.714680846051573              3.5452346924318117              3.224280811247111
H              4.2112862386385235              4.007404819195417              3.0087183960017505
H              1.430866779386027              2.0114704745519503              2.2011579922378135
H              0.8976334782777718              2.3034074376218525              2.5247756734233726
H              2.682601074826823              3.786867519143042              0.02871473513829687
H              2.0262165989892584              3.6949729437180676              0.3928016014259301
H              0.8939991414895242              1.0066989347702184              -0.48863218202834996
H              1.399872581076861              0.6236485876273801              -0.18458703067491405
H              -1.4826087649918498              -2.4463694540849694              -2.227805940725768
H              -1.783023109246549              -3.002678084644978              -2.3035437838019637
H              3.798306469044057              1.0708695753513915              1.532050517407109
H              4.463651829725426              1.2295323338741082              1.234031189026327
H              3.6366884833065205              3.9051018033463407              3.194768885837259
H              4.190046945834924              4.287113269322351              2.9434184015444607
H              1.6790279598927607              2.009400197388147              2.5925307936068474
H              1.2274223143770495              2.507720853171768              2.4366654435560196
H              2.655110669919461              3.6242236985375325              0.017446057141169015
H              1.8402873415606615              3.596061675201006              0.039985895894792144
H              1.167408213075895              0.3403132157359021              -0.5769780148496185
H              1.1408860512318437              1.079251424051007              -0.2650840958020082
H              -1.2805987060324173              -2.4484031310641856              -2.438816553200787
H              -1.8985445980229005              -2.7812895144879843              -2.3163941615481374
H              4.044046029206012              1.2404267238091706              1.3689039550465818
H              4.5447006778841885              1.4379291971337114              0.9279949099809713
H              3.5960931517115475              3.9197164743393396              3.236237733238215
H              4.211034747145645              4.215432349512456              2.9088472704837463
H              1.794647789540288              2.239804702285401              2.292125861965462
H              1.1517856571770895              2.527151307958291              2.5198523491815354
H              2.7530659510706723              4.094422050071126              -0.1251483392572938
H              2.138715287828199              3.7596670436822297              0.22121148385081926
H              1.3508671520624458              0.7256791837536435              -0.7132295331682208
H              1.1217881496217061              1.00463107677196              -0.04487366626373643
H              -0.8318565276451174              -2.3146339695996203              -2.164203288343142
H              -1.5476640226657141              -2.736062976790701              -2.2834332454859942
H              4.172372142968336              1.0487384601670944              1.6300056026304441
H              4.552685390038857              1.5158633733688331              0.9922492548298297
H              4.014746392139774              3.4585539905258273              3.2798518527074507
H              4.1320324037570835              4.119490051768887              3.065026419637504
H              1.3627190433659262              2.3452933091917956              2.881102072393187
H              1.167929288261372              2.4996047432528194              2.168509292419489
H              2.841844415860777              3.8644249041955785              -0.055508192696699585
H              2.2248314513955836              3.611702252051106              0.26921311782539037
H              1.1157713892825258              0.6982441121806545              -0.6728260477838575
H              1.459336037540463              1.0511158905920093              -0.1295662220394839
H              -0.7241716374653361              -2.5667336112615593              -1.921605966212461
H              -1.4320093989525937              -2.417852104291561              -2.0723737430816636
H              4.088112905273384              1.2399980439027207              1.5989476239580254
H              4.26011456400298              1.6524240762060012              1.0052035538435238
H              4.12626875818316              3.724978089375529              3.2981426680949197
H              4.375515492549236              3.8561882683160533              2.700980842073459
H              1.694816993318944              2.3256283489940763              2.716524649523601
H              1.3122098794094221              2.309738188446207              2.0422129058468106
H              3.0458640335726166              3.845643979127871              0.15640791086239314
H              2.378404508481092              3.5673162055412226              0.30828224582024866
H              0.9638988445196619              0.6906442042750643              -0.53779988457176
H              1.2485322120453346              1.321558649351082              -0.2129895921041307
H              -0.9904139967284116              -2.662611600194891              -1.9489645589991744
H              -1.761706782480946              -2.557070801372528              -2.1605538069835792
H              3.564544561725317              1.4088606491209337              1.4134299037177303
H              4.297535954547108              1.2734902052861785              1.1559144378824164
H              3.882928370370743              3.517890438501717              3.34124004440885
H              4.380868252727767              3.877689610635293              2.9599533276601235
H              1.6515876791465585              1.9563290956855037              2.5552495331300413
H              1.059342547934903              2.3289853596550616              2.1082020689443532
H              2.962931578943121              3.6497389644180944              -0.02391107217199223
H              2.3876304422066004              3.6535639946254825              0.4264016553897052
