72

H              1.935546793877011              1.2773708666541872              -0.30789515883704527
H              1.3440724808785798              1.2015428672161537              0.07557793423553541
H              -1.518481124608906              -0.7095581231056342              -2.2942430288373687
H              -1.1667378201471548              -0.7271311176829975              -1.7075008814936654
H              3.7294928317358305              1.6722914259365478              0.7032962003128495
H              4.312537578968497              2.1252392035472445              0.8910749234211918
H              3.6693094635240584              4.227840669597864              3.19171451753472
H              3.9455484427331853              4.269488199062802              2.4544346207081267
H              1.7280068667127928              2.073294845834401              2.715308789735522
H              1.751116829503134              1.7221841914696616              3.360715281608544
H              2.00067490420297              3.8719648634627495              0.41842782569583964
H              1.307672153732882              4.06169093770678              0.7653189891501555
H              1.8769885647904672              1.0616364687341082              -0.2796299049077351
H              1.1995153317199194              1.2265036471043909              0.014332679934971861
H              -1.9297267306633643              -0.7006262746514078              -2.5414738411104927
H              -1.3365394399636346              -0.9163581514440701              -2.0916021583808178
H              4.088230179535017              1.6678463226195759              1.0545480689126754
H              4.505679142240571              2.259956320901091              0.9350544005423685
H              3.5537764106796184              4.703574624622769              2.936880626219007
H              3.834691104967758              4.3460128573010826              2.346513290566838
H              1.617211742231572              1.9721611065912217              2.392497765826845
H              1.858866958426916              1.901532599380836              3.0955475940609833
H              2.062588760792297              3.8860849236837898              0.6622851350269877
H              1.4303864478218289              4.257925101718498              0.7878624911485781
H              1.8184397543392745              1.2926640937964633              -0.5692091426381292
H              1.1739327559802721              1.3359032250799603              -0.21866774012233575
H              -1.845162471868272              -0.5669631243922819              -2.55887657538454
H              -1.0849942426848138              -0.6480754521193651              -2.3729290029408516
H              3.8435894772723294              1.741102537106049              0.7209106973410835
H              4.319013017372772              2.395696449411943              0.8389081817105944
H              3.5378738372527705              4.286392092279629              3.0761418123541993
H              3.881956687898735              4.6091381500870074              2.406041924448089
H              1.4600676724221102              2.022916821403679              2.3707543874596464
H              2.0923137318301572              2.083901472975658              2.7747651054337004
H              1.6852261936053679              3.66868180134596              0.3071764884836671
H              1.5516141286361642              4.0772617137705245              0.9541006537968237
H              1.7312383385594556              1.3629545228019342              -0.6022953309680139
H              1.4150015872993447              1.2333721802136597              0.15613537768874117
H              -1.4253043385858637              -0.35833704716006176              -2.249971668658366
H              -0.811123544695847              -0.6760252089778813              -2.1586068653305373
H              3.9268544038812534              1.867879936357546              0.6349475448989877
H              4.218001583258165              2.450833741484829              0.8795166355201902
H              4.034313104627972              4.040869130932778              3.0460689044863574
H              4.123113413664412              4.596296033797836              2.5363144282332155
H              1.7878125651013663              2.0971292787427775              2.2400599265840104
H              2.133803491299973              1.889844208247151              2.886004925418438
H              1.6836808567641277              3.731282411061319              0.35957794472202176
H              1.7763718557283326              4.221555139266066              0.925452631301927
H              1.6866856932665193              1.2398254903198358              -0.4983061060890268
H              1.4662069868307164              1.2727451053677197              0.1644918201832825
H              -1.4213485737950005              -0.37797572218506265              -2.2272332662446312
H              -0.8062698964021611              -0.7258291846329842              -1.8585973224145629
H              4.5601921135298475              1.7895177920122918              0.41560936190098796
H              4.392239316321045              2.369600316137571              0.8507294555063784
H              4.137424604277998              4.163672011933802              3.2527597774968537
H              3.7688681602965364              4.1682205168027355              2.5853894745417754
H              1.8561996233738638              2.393353399579978              2.562728263393273
H              1.7061073046227773              1.761398828908038              2.737989693855506
H              1.976635247170914              3.7681712410193713              0.15232363589890807
H              1.6959630601577818              3.8802437309200175              0.7937331937991474
H              1.6832058149297955              1.5213495575842477              -0.3709632816560708
H              1.5786218491620272              0.9865739622081385              0.09597591895817083
H              -1.5088977892103075              -0.5879866657575971              -2.43657792953494
H              -0.9757702380738513              -0.7822533234999016              -1.8209311814395286
H              4.18640093849225              1.6566142278035643              0.600559509362223
H              4.766852814896229              2.125250786602212              0.623781576003218
H              3.751457207407677              4.004724977424384              3.264544297704858
H              4.028215454720186              4.309684206996799              2.6545490375206815
H              1.8337850615611997              2.0982589586873317              2.4783551300323348
H              1.7493920884350118              1.9215616504489557              3.147398557551031
H              1.9448430486600712              3.828606900215594              0.18381786416993676
H              1.4687838005219236              4.092668532592916              0.7129679702416445
