72

H              2.4006399138276624              1.5270161895799543              1.0594351584832353
H              2.0485982889938534              1.7724360591393293              0.49599649158545417
H              -0.3629661951052506              -1.2441430340533246              -1.9110221724344856
H              -0.7335728100889712              -1.8279665045659241              -2.355732145816376
H              5.010429015912621              2.1658269299972988              1.7020499880296103
H              5.200164133563              2.7623534966969028              1.2249297484608968
H              4.280981017784278              4.848107848857777              2.6761857550274075
H              4.123890938082703              4.14780465287687              2.8474917148366594
H              2.710738757618594              2.0346342511389026              3.7212388533367027
H              2.938454307571739              1.786136222319849              3.18346763333871
H              2.9953179869037925              4.445979164814301              -0.06407890943917273
H              2.8141753700223804              3.988388677068365              0.5069060807897088
H              2.1395498432343967              1.2051238595615512              0.9775103136085445
H              2.224530255749527              1.9218334205643606              0.8946141557175256
H              -0.36137517115195195              -1.2715939898974626              -1.7772254091586968
H              -0.8166628314513156              -1.5926322922103922              -2.2540803606152555
H              4.999526806928612              2.2783769062348287              1.4887348364434605
H              5.224167656652668              2.978979570987092              1.3453521101024009
H              4.544818456504657              4.764939439649313              2.5204295353538124
H              4.572861731656867              4.310707513350041              3.138104718382736
H              2.4937260429189396              1.963565413629294              3.639755227308046
H              3.0514857312971575              2.1166750323987222              3.2071878453434723
H              2.875930567350094              4.51557433649255              0.22106461319090487
H              2.5905906470553584              3.8547016173851887              0.4815058482575332
H              2.3240283765333736              1.357595684408853              0.9480933138551549
H              1.8184005056278483              1.8089526111352578              1.2793209671884826
H              -0.5584432129038933              -1.2824857256276136              -1.6218742074107833
H              -1.2010308485235772              -1.441567270913482              -2.116324086809781
H              4.7250638962396225              2.2039515843363007              0.9810727199842235
H              5.058901434296878              2.9573943945876957              0.9359481771640629
H              4.572414510099293              4.769304526391971              2.6037689677380977
H              4.4892848848364615              4.503494283877532              3.2691158490367505
H              2.792776903199998              1.752550311757372              3.8177853303247233
H              2.815251817000563              2.1582367096655215              3.243389878020943
H              2.82945868596583              4.684744838095486              0.30644035378720447
H              2.8207893956459573              3.934656610465229              0.3916883185067583
H              2.3195998656378376              1.6150897515068658              0.757377692871913
H              1.6658834964202127              1.6350282536112553              1.1211322028931903
H              -0.524837054931352              -1.0932260454138951              -1.7772154013426886
H              -1.238456159482646              -1.2743596642606174              -2.14065982376209
H              4.852044494305297              2.0662181744488017              1.3692319300724562
H              5.167257945990927              2.6089020741665565              1.086348145010052
H              4.424802028916363              5.067741965268547              2.6641269839475132
H              4.292674617567291              4.446289047666914              3.058344535779043
H              2.598086154184755              1.81567952604082              3.912336680261105
H              2.857531848361133              1.9350820661729375              3.3052970900490606
H              2.864269049720984              4.37991947700005              0.5251681026206895
H              3.032142742985139              3.609608511083414              0.36008706657239303
H              2.313025056736922              1.4805897732845552              0.9810613390855483
H              1.798786932684465              1.968713572933234              0.8551936739756095
H              -0.3062208471230071              -0.9326161027744128              -1.7846852006074037
H              -0.9011856328020624              -1.2419554994292659              -1.9356351021031817
H              4.61728066964963              2.338800693244217              1.5052150080176576
H              5.044721069787973              2.7742146278743682              1.0293606967816538
H              4.378775524922836              4.997998165317364              2.467844978116111
H              4.5468777001481895              4.492789226010803              3.0077613876254405
H              2.8288924457614475              1.951725145391873              3.646713192864675
H              3.1361029880986306              2.386082002963194              3.2108341592861525
H              3.2075917159970024              4.426859754376827              0.6660894554329351
H              2.744036921633007              3.9810828208895113              0.3573418526729424
H              2.228507505126116              1.3893490583120844              0.8357269740348081
H              1.7441762606009394              1.9654314271367082              0.8788706069174307
H              -0.4050088116169417              -0.997832296045204              -1.7312710325480938
H              -0.9051795923737757              -1.4162446491369853              -2.071957588615485
H              4.574997303953798              2.303046848084471              1.416955222451908
H              4.994441025689383              2.6838790156788805              0.953170479183878
H              4.028229621932872              5.026615962980541              2.573754174253328
H              4.3754118538570745              4.416606116819262              2.8501780960319656
H              3.017566759902685              2.098640573156497              3.65849188292584
H              3.1379201839729287              2.0479158680884977              2.9469251886395478
H              3.1590606237940704              4.513687304112431              0.33366090811777305
H              2.7279014305860065              3.9781035109768426              0.4568675836623509
