72

H              2.3685024055026216              1.7461708215916756              1.274571543089834
H              1.802895605659767              1.442274770470603              0.8839415690663961
H              0.16764029861135038              -1.0548563388065757              -2.0550216273261626
H              -0.5490753035154468              -1.0928627372283966              -1.9436501240754358
H              4.620966283242338              2.108682297689412              0.9149321660597941
H              4.995791733064646              2.572528768679189              1.2930019853182284
H              3.877187383732697              4.708595152512705              2.4111449025932177
H              4.174735068258556              4.774160219119624              3.142470320057191
H              2.637826028126201              2.389481360800693              3.5938369652825264
H              3.215845546231791              1.7714995636576056              3.608577531273762
H              2.582677361584143              4.4697727074610905              0.27863593577445744
H              2.929177518695494              3.79402013408388              0.32727171142313505
H              2.2006197623589063              1.5302576167747015              1.134944373217221
H              1.613917438852339              1.8971483966921538              1.1065129229886073
H              0.3733568683227819              -1.1111095519509535              -1.9822301980018282
H              -0.2882738468743075              -0.8745094467969639              -1.7339455474463097
H              4.747656205303491              1.952149988175881              0.832963120575859
H              5.111971243372962              2.3246149994176966              1.4143348387931514
H              3.778609273659666              4.761184923204665              2.740507534679391
H              4.412901180276973              4.718419241540534              3.0953221338553374
H              2.657726998334205              2.2511680960471327              3.329945016257149
H              3.221465239882714              1.5472410770191862              3.418272011344685
H              2.960639628762949              4.572886394634612              0.4620459740544727
H              2.7491603585273054              3.911265915990396              0.31246378279796794
H              2.070114283077512              1.7416361210627147              1.1872361424669582
H              1.691360494514632              2.3341685896837525              0.9063618382620697
H              0.36792594239011917              -1.22184589457138              -1.6045552443506352
H              -0.4406875768503617              -1.1728108843370748              -1.5961012727819774
H              4.895267448386287              1.8941514046021743              0.9915839104848829
H              4.960658115438988              2.6193422103552093              1.2366977376161514
H              4.150297988126782              4.611241645072008              2.5964100887079917
H              4.415543405488552              4.743947151629911              3.311579423446469
H              2.5713846128687337              2.4991039553313326              3.663213879894676
H              2.9464114427706405              1.9240677510416457              3.564422122058721
H              3.1822286990095274              4.601917082338311              0.19925283372493255
H              2.9666353297103227              3.980301835773722              0.5371413330529042
H              2.2088738936690917              1.5931818623048275              1.1645545081194133
H              1.7336173664223158              1.8475675777447158              0.6841164471745356
H              -0.03416339643338916              -1.1912992999386793              -1.8368566344744583
H              -0.8789149661158048              -1.3157379577764947              -1.747866479813749
H              4.954496861542725              2.0066017115907555              1.0660975710319813
H              4.945975500553184              2.7390272149574275              1.5125744796680731
H              4.28552828501346              4.973619604590343              2.443509548393529
H              4.160537499361187              4.791557851902736              3.1395316543968974
H              2.347990982378707              2.484666008160739              3.8588809565580275
H              2.7792369195279516              1.8912959598590675              3.7440088224909918
H              2.827103447811252              4.256427613597413              0.11471795076175197
H              3.197946439591767              3.837372726711136              0.6531787745525038
H              2.3655272924947157              1.3357439018331936              1.202451454122603
H              1.9201931249560373              1.6534400455801876              0.7697390393534559
H              -0.018970316944182088              -1.1642903934630997              -2.048944321420751
H              -0.6285867728967784              -1.433381001325459              -1.8146724664504343
H              4.9355763250860685              2.189228860534993              0.927005961074466
H              5.167216397835016              2.836837662438756              1.1411374257606755
H              4.1351081559958365              4.891569775267417              2.4263735809380824
H              4.057202474272789              4.79116948548113              3.1210826175202775
H              2.1687255851055554              2.235480975814271              3.8914528310318963
H              2.7797429281745907              2.3613358827464928              3.545041513509467
H              2.7671645084123293              4.315520861848698              0.2873934257814849
H              2.8122093051100836              3.691844791866568              0.6470498325101129
H              2.3227744817812663              1.5608587653166055              0.8315088337815779
H              1.6426819680796034              1.5274932938191133              1.2013305858100534
H              0.08709150105659694              -1.0820349605858226              -1.9002422822318223
H              -0.5789422094272626              -1.2527780150233812              -1.9329441771168432
H              4.744613029491359              2.2005685327623485              0.8989783517807877
H              5.277121836912025              2.6992698355521214              1.0955107059605
H              3.7976382573468945              4.772818786459375              2.43444697826246
H              4.204620706182428              4.770855290496244              3.1287330607048323
H              2.2562682440306228              2.4020901792241074              3.689585046948094
H              3.021616127274594              2.401499401774495              3.7244620418713437
H              2.512805299693681              4.259253768517374              0.4453573165270838
H              2.857560032277913              3.6641914263014908              0.4668513429613314
