72

H              2.287629874414172              1.809553046725845              0.6494830217437848
H              1.5849868381565666              1.702693768687416              0.8786363726778238
H              0.1499312592346067              -0.12618914000824238              -1.9036370900445805
H              0.4171813391955554              0.3649886254925651              -2.359978164751658
H              5.4528194866224355              2.2713486837992636              1.0462478350402529
H              5.008551930731257              2.652182446958331              0.5611118128863661
H              4.4676511103278385              4.719254267766313              2.927719508520129
H              4.026351731253775              4.11262372328083              2.848172611409907
H              3.542817958012323              1.4188618071799453              3.2089006446379527
H              3.348872667729465              2.079417751430202              3.045551890958521
H              2.953854090559263              4.334399257481511              0.347633132112986
H              2.7058134641282936              4.6645755365298855              0.9547151542201753
H              2.343293828974644              1.6042692271167787              0.5997892094251963
H              1.859279141820015              1.9826210639815864              1.0127858778400176
H              0.04115949923818892              -0.2194112044719246              -1.7823389414635928
H              0.4060040906020258              0.2234508159638217              -2.191170797838168
H              5.149603573176226              2.294470933683152              1.2132328499615423
H              4.786060214825833              2.569534572687708              0.6836898601376467
H              4.440292250708789              4.27351048413796              2.990784602925493
H              3.886640197388201              3.876064826662084              3.290128994741468
H              3.423815919114022              1.540434964785067              3.2027697671403574
H              3.292552752168567              2.2672866188986416              3.0685337707932043
H              3.218694186432823              4.2078805665892975              0.1250467480619775
H              2.74014027410077              4.357514660616147              0.6670981824237903
H              2.2961661316480217              1.5617275454995116              0.7999144527121309
H              1.781867347335457              1.9993442276947366              1.0785158562922945
H              -0.00781805453298023              -0.30314228887109096              -1.581818600948535
H              0.25194417875209096              0.22704019484149737              -2.2415312800748364
H              5.226451555205201              2.44283478953023              1.5080370966443852
H              4.958515238051222              2.257185170447718              0.7864819022453361
H              4.444750654795372              4.451168159472395              3.0619358695390786
H              4.056248747530979              3.785267131685665              3.1377956047104205
H              2.9847088396934733              1.5320492322260748              3.3535775808934556
H              3.47062860431529              2.051236536813977              2.9569624333325013
H              3.2317300287236543              4.264511257777746              0.17709715106350876
H              2.81974359871458              4.410049175863331              0.788286221803096
H              2.2404834921511023              1.825808522819022              0.6049855865715912
H              1.7453105063132566              2.1068614927892333              1.0674979674788705
H              -0.07989308698904765              -0.3518225971861491              -1.5981492767483674
H              -0.03008736385874465              0.332591196316053              -1.9614469495428628
H              5.335395823117195              2.3823811975489346              1.015932693995344
H              4.857400605017206              2.159848506787648              0.49442564419226553
H              3.9867634123429165              4.639108207805582              3.081174879204887
H              4.297215266201992              3.9504508946262065              2.989754055818785
H              2.9690851173715918              1.862151156547442              3.467632197955732
H              3.515120385117451              2.107761625136611              2.904120292401216
H              2.9639255609814446              4.359264449410916              0.09400145886366482
H              2.9196536589725643              4.557798144643701              0.8417328412021083
H              2.274910943582261              1.740694009242927              0.5970149965595827
H              1.6555106935755313              2.0774674788497993              0.5510244149962968
H              -0.32609165062306267              -0.4889770732723393              -2.0225253962846557
H              -0.13169775128358827              0.21030649438327387              -2.2855929575049148
H              5.263253378093978              2.299283149848332              1.4519656637380294
H              4.7761280847797645              2.2086419095705243              0.828539552015908
H              3.871797179765793              4.890136805314965              3.0347213691507577
H              4.058643424212864              4.1557407528038635              3.097113176980349
H              3.0894439308898622              1.5853680091064046              3.127819314045033
H              3.450776644022247              2.149195763463131              3.1438972256754107
H              3.0562066262384975              4.300856495825538              0.30881256482790204
H              2.6151896315012237              4.938090377588237              0.3979245635688597
H              2.3996280146943714              1.8796122241886895              0.25546149311204125
H              2.0270758468695402              1.5487867614187518              0.821111593917837
H              0.21240186860256885              -0.4107611684171858              -2.2033380217208696
H              0.07103066018631622              0.3216087312198266              -2.437398872327374
H              5.284215653481739              2.4566783351702375              1.1977138568550052
H              4.623033841890319              2.363262917497567              1.1260293079316617
H              4.149840571308035              4.850237067953199              3.0865138619679846
H              3.968399489403964              4.2392424425428405              2.6193937518805885
H              3.196040815029389              1.3923907202169              3.4041810456909696
H              3.1810187359070357              2.002457344414068              2.85353920052986
H              3.1042195311825784              4.2115856688381506              0.48804207772447755
H              2.585575194911883              4.72854800754983              0.46569654605152067
