72

H              1.4819028827168206              1.5940090118013401              0.18795498131562366
H              1.4435626403441766              1.1519920535289188              0.7833603089478677
H              -1.4737361595181808              0.012733357473797075              -2.0639454969569555
H              -0.7942821043270595              0.00939676010195188              -2.0216730041602236
H              4.376787520655177              1.6539649506383785              0.44489264606358436
H              4.326293282529281              2.47422315457812              0.38220525719559106
H              3.5029259255824314              3.9949547869356112              2.6034447898288655
H              4.032466169473832              4.5406436506715995              2.8710343507578893
H              2.1011611000417636              1.7904682023314886              2.718830149472446
H              2.586279455877781              1.5678818257868592              3.2523805259205236
H              2.258525017592385              4.0005640267428975              0.3472183022949395
H              2.000442014925551              4.489187872385393              0.9357980478534037
H              1.4801509769272996              1.814860241621091              0.3367338895172441
H              1.1431659639207938              1.1971716635072964              0.5477489134752247
H              -1.4158759647275996              -0.15801386526284153              -2.3657062844025605
H              -0.6667662295196173              -0.09312316592223785              -2.184207918733195
H              4.107527201505606              1.869006292698552              0.8467192348205218
H              4.639057567813023              2.2595235893490337              0.5038811151488972
H              3.3784009775782184              4.07745303451871              2.8486960783019213
H              3.945587084446556              4.552561614480171              2.9968991998934316
H              2.2002097841902817              1.9993490622157493              2.4928344993934854
H              2.5516831939778406              1.597988137201237              2.9814410809510306
H              2.4218289000468287              4.243594596738585              0.17068203690131406
H              2.0730729776151278              4.3548303048308865              0.8089028124281198
H              1.706519084751062              1.6051681872307144              0.08735273326273875
H              1.2091585977119925              1.29286518206656              0.5827319870793051
H              -1.0564395756875216              -0.28982025288325364              -2.295853648682994
H              -0.39015907750437717              -0.019465863569597456              -2.3262605337379068
H              4.338867756375549              1.7632162506616451              0.8581765829497507
H              4.5281630786931535              2.540504789871812              0.6927419530936543
H              3.533496737906097              4.049432757801333              2.8084430185727682
H              3.8179283112498066              4.79753122269735              2.902557531404199
H              2.0271470477213107              1.865583772751698              2.531253708320488
H              2.5338294832526307              1.8640092746985504              3.127352795843279
H              2.477921461190951              3.9541066599550176              0.20325669003041194
H              2.116879797021921              3.926649690053779              0.8511502960223084
H              1.438817823204448              1.9667612739690998              0.15794526259939534
H              1.3343545319531853              1.2161887210210287              0.39469695966180507
H              -1.2099254440001626              -0.2197987186731505              -2.3848003202935173
H              -0.5303407409418415              -0.2718057630012576              -2.2918088776070844
H              4.721891881690302              1.7599168964019896              0.613525847549923
H              4.685449068321478              2.5226598690135456              0.36776886807680925
H              3.564702279231348              4.308176673652167              2.861401310703395
H              4.079028780123097              4.756292111164252              2.6585338392038413
H              2.520036963814614              1.597624242168753              2.628029201103717
H              2.3116373013396583              2.177867126818167              3.1371946379846287
H              2.5943412024072114              4.043932591352431              0.5430323955547072
H              1.8899975376302207              4.277178319454769              0.675493804289546
H              1.5854112252448784              1.8792663793762934              0.15719111220954346
H              1.3962709698903004              1.2068413217595713              0.23728032515401534
H              -1.392113211041935              -0.16218744539280047              -2.238381440375338
H              -0.656360896027439              -0.4378091765701759              -2.2677002441356993
H              4.125201593624813              1.8144924322592044              0.47788975850256366
H              4.572876377896675              2.370332458219736              0.7585830894234591
H              3.5587617710106603              3.9799283249556106              3.0741540832692937
H              3.9923047298954546              4.525105110445415              2.8337381168403994
H              2.121060916103604              1.6381251737019829              2.634203238599372
H              2.404712084690797              2.1066951965526894              3.1919056148695626
H              2.2810173498653636              4.302310806459254              0.45543010982729887
H              1.8406292583009218              3.8412981766783973              0.7898283360448499
H              1.406006890532338              1.6063682816273128              0.09238571125451218
H              1.5997655623466285              1.198055977175045              0.7160212051523518
H              -1.3822968532990065              -0.16572540554649856              -1.9270273495039636
H              -0.6525671607592951              -0.2878657411401106              -2.303382572281436
H              4.433116098445468              1.7169136478722324              0.7536411413916057
H              4.5590697875879815              2.4107153543968622              0.7400616342698891
H              3.7864377909311697              4.014676423239098              2.451994804979357
H              4.099089581275813              4.4598036187446              2.9622460457929027
H              1.9912911565182936              1.313736029622432              3.002838563223266
H              2.4345627125547975              1.8264635569072873              3.114997148410204
H              2.1476563576828323              4.175120521712868              0.46736772335240273
H              1.9626768575369566              4.324506342623491              1.1633828112896176
