72

H              1.6673112385618283              1.1442880077900188              -0.5810146165771188
H              1.31855464308546              1.2737768136268974              0.022396727495147307
H              -1.8846635287787155              -0.7161277385287337              -2.4790514076926686
H              -1.3549597310219041              -0.9011293741536432              -1.8582836873671635
H              4.018759949552774              1.7091670102123417              0.8450189036299578
H              4.573614889415506              2.2491439333838055              0.8860480573160463
H              3.8460079384130568              4.373778735548573              3.1123489774688906
H              3.9282056832706638              4.164369719431064              2.3749982988830327
H              1.4581908829661603              2.239021150151944              2.229998630975594
H              1.7837965643394214              1.8389507072997868              2.6985410525336713
H              1.721663592205035              3.80350965689215              0.3503560779967274
H              1.5649045569002569              4.181257863861992              0.937641030974263
H              1.817640058415562              1.132974493524346              -0.5125629314175815
H              1.2601362559821438              1.243906587455934              0.0025482592760134883
H              -1.5311586952169156              -0.7359760144145969              -2.457763386168314
H              -1.1471451088632068              -0.6550781041017043              -1.8363006306430298
H              3.742686951762062              1.753337075954396              0.5449051041491745
H              4.275736024261459              2.1089350400514726              0.8757283952074327
H              3.9026441736010393              4.1757715285400145              3.2897940799105214
H              3.8087800101021885              4.296568411865761              2.582006059010295
H              1.5022580771537273              2.3681407761795716              2.4172177566574353
H              1.8906670515532162              1.8527873862299755              2.744622522030466
H              1.5973062781498257              3.654819948998944              0.03662710727566907
H              1.601166472709295              3.8860562064092603              0.7693102853674827
H              1.8644713214636777              0.9598924440490342              -0.28478014334749896
H              1.2004646229244866              1.142375322727822              -0.05920333431733797
H              -1.438713957717501              -0.8554524651934662              -2.4719297826203905
H              -1.0534882788890931              -0.9487815147254716              -1.8478500486284453
H              4.220017984891539              1.6177782515755033              0.7851640265400478
H              4.550656393325485              2.2878630800125834              0.8233745946734206
H              4.105289559590558              4.6234142068926225              3.1024187530271385
H              3.7267166303544093              4.23395725932032              2.5764455739910352
H              1.5773463320052714              2.321013538760896              2.4826932228773004
H              1.7121993864217142              1.79832866270499              3.011793200817431
H              2.0629278751633082              3.7470075472713296              0.23730768866402288
H              1.544294788364826              4.093774708140394              0.6225526307042509
H              1.7444985314717856              0.9430002964028006              -0.4615316933789284
H              1.111305476747584              1.186761611780806              -0.345536384294018
H              -1.696154839395719              -0.8399071756607276              -2.6108430165688774
H              -1.112361518434083              -1.1387632951157485              -2.078535513031579
H              4.334152351034323              1.5871535189424297              0.680256843229794
H              4.498140596829174              2.2739818126497284              0.8329555248714623
H              3.852676193718936              4.644183097730344              3.170433540312069
H              3.6173692863061904              4.180288383476437              2.597964957968275
H              1.3624513916624217              2.4094924989860957              2.6563850208171855
H              1.6537790593281447              1.9135890134470535              3.0750694128675815
H              2.0477352943216856              3.7217174154750583              0.3325004372414377
H              1.3895839000577568              3.908737115905685              0.6096273606716534
H              1.2961062818646352              1.4822927745923902              -0.6514529455277083
H              1.5822868794160738              1.0431563621995827              -0.1260598602520891
H              -1.647423353324952              -0.7759648494820699              -2.3727897452698508
H              -1.1529396334853899              -1.178648417755502              -2.0555452519341637
H              3.75682232234565              1.7368898666299517              0.8789671976883165
H              4.2937153394983465              2.2775983548634167              0.8198539418432168
H              3.893860901078825              4.234221423745754              3.1067083753845557
H              4.120023176505536              4.385845906375359              2.354507114307051
H              1.457894814243297              2.0272215980904393              2.5802317306630824
H              1.7994438533107902              2.004317472491495              3.1920671035519663
H              1.8413174445606546              3.8287923768413683              0.5676381684292002
H              1.2836300176641675              4.273019573368035              0.9947506051200665
H              1.7071757184733578              1.0413077679054297              -0.604566628101006
H              1.3009223166045945              1.536472296379564              -0.12464968647551743
H              -1.6796470716619119              -0.5865727963574047              -2.1404401283498933
H              -1.3913332560119953              -1.0838082602442138              -1.799100542643571
H              3.7908615530800343              1.8282500530556196              0.7909505056465892
H              3.9551380363830178              2.3449465505749587              1.2105912038339184
H              4.123872396193449              4.300339777054721              3.0370946501275267
H              3.893302807886281              4.10945325420425              2.352821700337381
H              1.6810647116087565              2.36793142130887              2.7554493260135056
H              1.5129947132441572              1.5850682472131863              2.7643425481057933
H              1.8269116197455597              3.7796882772995186              0.5823217982452175
H              1.4019432789947863              4.056234069783958              1.127989033861443
