72

H              1.5336565141168659              1.6292952530992886              0.18780627887638202
H              1.344511512661502              1.2543105909404735              0.7603040059053484
H              -1.595122871388773              -0.026802691836972977              -2.1482644077371496
H              -0.8127437507566752              -0.05632168306000672              -2.0354475807535075
H              4.45787926173095              1.6936064393318444              0.5459246717275666
H              4.470621126533321              2.358590267725395              0.43564043022770643
H              3.42660913020489              4.0371701164025              2.723064976959799
H              3.934696320079455              4.526182472889656              2.8776681082104325
H              2.1700277011080193              1.7615869129435797              2.720771630365535
H              2.5138032771207786              1.6404369651185178              3.381822913138761
H              2.361711078634301              4.0135264189352275              0.36817789978546517
H              2.002783192274404              4.360731090276709              0.8483022421285017
H              1.408087403322955              2.0084499835577545              0.31658386772194946
H              1.247223002495933              1.2659994523433962              0.351157815547651
H              -1.3792473223009523              -0.23666615746832204              -2.3634979734488977
H              -0.6874971081161805              -0.0033155435658910747              -2.245992284924719
H              4.099708323705703              1.9242848829393284              0.9390584817772835
H              4.498299251365235              2.227814293259466              0.38673351420518803
H              3.3427865664113323              4.228569932860543              2.6608151102484556
H              3.9518648894519903              4.5120830213654495              3.0204592387345555
H              2.116285239765054              1.819495035243518              2.657028984819033
H              2.6447464544573402              1.6000053509841023              3.1695142751167444
H              2.4298396833040266              4.277474882196344              0.22648597227625256
H              2.031818669307379              4.3564396906404586              0.8368566319602968
H              1.7074497482179503              1.498805043677214              0.12486506580271081
H              1.1930200882697142              1.3293997365137467              0.5965434641440974
H              -1.1524379773216236              -0.21579771158974487              -2.249807620234481
H              -0.3597497855179692              -0.0076426166563760625              -2.3909384935366775
H              4.272103686546105              1.8659464102791181              0.850125338106872
H              4.368723336941718              2.5463203794527463              0.826525653221585
H              3.5298236080756604              4.175928317768606              2.7711887305831424
H              3.83612855514647              4.809534544140295              2.8324966355440746
H              2.101073931737472              1.884702302400099              2.6237878563116994
H              2.673262961832319              1.7797161387027933              3.0208711256561007
H              2.519825945787445              4.037351918310329              0.25509527013252853
H              2.1514388451086286              4.104097096046309              0.9076101245926048
H              1.4079415241840394              1.9084820271493959              0.1268543887493815
H              1.4010237089827833              1.267846692314216              0.44911249144444654
H              -1.2416326737107823              -0.1833218560832274              -2.386571312924315
H              -0.41847028911036904              -0.21278562429909995              -2.456327346331639
H              4.853649846667669              1.8734783154738515              0.5795135169377298
H              4.736154056578561              2.5271168103377923              0.4226982403939349
H              3.5311662441961005              4.258189645532267              2.8395288138494554
H              4.068457268808368              4.801929264164859              2.691550688766735
H              2.529693235697567              1.605472780438131              2.6059102734323925
H              2.297994374790615              2.1684442216098883              2.935146133795338
H              2.6262861937206856              4.059843339250125              0.46206715731397274
H              1.9921204322384094              4.276300053277539              0.6830511978144874
H              1.629665479573512              1.8441184283921679              0.28466254563844323
H              1.540654927728114              1.102136782892117              0.28112431003899097
H              -1.172229034536286              -0.049709559344178304              -2.1683183639980244
H              -0.5388522294471647              -0.32474511418265867              -2.27185895310594
H              4.12284188947355              1.831722811132538              0.43602028875129045
H              4.553985107143265              2.3781220105352383              0.6068722052621036
H              3.721329308048673              3.841959875045016              2.9839242892459694
H              4.032926546383107              4.572004671950968              3.050179251392176
H              2.25332957995257              1.6227781408065898              2.6446788999172792
H              2.4748839428815814              2.0510435586456057              3.190280437199063
H              2.259872927048779              4.292333900223141              0.35228470574171633
H              1.9216834852871234              3.8437919837374532              0.8312803774590163
H              1.45942650400546              1.5712287945898635              0.21570919832749896
H              1.5837444928884226              1.3068764336660108              0.8484512105248201
H              -1.243162676122494              -0.14796946797576507              -1.8626234266889299
H              -0.6020605554329992              -0.2531971929527268              -2.0706414284022947
H              4.489666163590289              1.6562838692575248              0.6479539212564845
H              4.6236077425016004              2.4245399381766757              0.6642709988732176
H              3.8438035252572993              3.974980154333778              2.5177065728126298
H              4.146850972422194              4.420400650208409              3.021573580428921
H              1.9948349592179835              1.275902662577634              3.122358054803019
H              2.557276433036774              1.844960508275504              3.174891915939498
H              2.2516997404845123              4.268097746470267              0.42545037047968925
H              2.035228083624026              4.294437849729063              1.1287767292252133
