72

H              2.036918758790325              2.2397683911215522              0.24465298138841318
H              1.8040033143501546              2.0967302442612934              1.0093370211171966
H              -0.6998117106144506              -0.07055088204097686              -1.6213486014255751
H              -0.2169862712711879              0.32471351778119045              -2.1519071945441284
H              4.9989227672017424              2.18221087509152              0.861456068312949
H              4.556001648595852              2.246645026797062              0.1555633299503212
H              4.0769404144902746              4.738426000038062              2.9355961531553616
H              4.259007075138113              4.022892664024185              3.1546267354469557
H              2.7335869634489374              1.590376048355056              3.575582254722113
H              3.4485155624390837              1.6243588607406192              3.4576759679606366
H              2.715853196673998              4.465562488266305              -0.0028855014618815286
H              2.646958124432384              4.6548383282196815              0.7573722074311334
H              2.351090887309583              1.9360960141588257              0.31817159881001916
H              1.616232134795791              2.036396369260855              0.4715227097252707
H              -0.7196471152003755              -0.1957988487004114              -2.1099686871949235
H              -0.3026433132742591              0.32961396332195586              -2.269807020120187
H              4.57304034311802              2.100456184885783              1.149444003759216
H              4.200416253717881              2.44506327566285              0.6318083312056517
H              3.7871557772890867              4.670538559374522              2.8156705999853893
H              3.9169971417000795              4.282644364025478              3.487695307734156
H              2.7796043816701865              1.5492691861382666              3.17218923279344
H              3.406876456153007              1.9280744109890458              3.45648085422264
H              2.865544514944285              4.3587382930390355              -0.1046239418116267
H              2.5058326340905013              4.651223437859234              0.4489127777350088
H              2.2454480357392734              2.087263783828343              0.15717461179880218
H              1.8819037871910358              1.6119203918503882              0.6220756074503782
H              -0.3363431310879994              -0.2143508186028647              -2.264967939314151
H              0.009550156879977878              0.3057383479784165              -2.539378331791188
H              4.968851490448686              2.3788621386746898              1.2037521905917292
H              4.3087983511530865              2.4726681198441107              0.7805064403962394
H              4.101944790656755              4.935564983727517              2.68312192690588
H              3.916644888953373              4.345387814984293              3.0763076159267246
H              2.9782107519737644              1.2039199391393578              3.2610618387664867
H              3.067231753926807              1.8874725525536342              3.1864149653506852
H              3.0997796621747393              4.4609573816568835              0.16093781346188976
H              2.5217204701373443              4.6539206245311675              0.5463231507634433
H              2.2141386010658937              1.8839673129686183              0.403080508065515
H              1.9651180897462195              1.3885106884904408              0.7856483261345558
H              -0.37620908432688804              -0.04617665814413685              -1.9996464395939493
H              0.2222014748973026              0.37074772389930505              -2.4066114355235064
H              4.887032447299329              2.120133509754434              0.7105465493014367
H              4.547893619716214              2.795786261363229              0.4123590653436448
H              4.268101040582766              4.651655770565107              2.713557850901005
H              4.063396610296077              4.4228672614092766              3.3782196970687317
H              2.928383918920149              1.4503861953875705              3.261251596415038
H              3.3740556154148              2.1188471081995566              2.9785225055579136
H              2.856390504159362              4.704746962630177              0.05396821710733468
H              2.624657483268164              4.312602117102987              0.6372481083226137
H              2.3853956275585912              1.707689324380175              0.43005546902444924
H              1.8947360349066085              1.9621794945247102              0.9610377928578462
H              -0.5040454315529032              -0.08473693234986819              -1.9094065566846616
H              0.011236988881001008              -0.006529424766168778              -2.3296617523795753
H              4.743373295432476              2.065596568572024              0.9241977502322206
H              4.899312908112302              2.626377806960407              0.44354985682359077
H              4.307744459677795              4.259455206213792              2.9020036374289213
H              4.106505008536004              4.313382893384267              3.572931945555456
H              3.0507060141853093              1.39740065552351              3.200234262337567
H              3.0559978283638927              2.1037664938712166              3.113221117054185
H              2.9396111936987293              4.684252219712913              0.01726494534720074
H              2.538655691261157              4.301666516108506              0.47090213289715516
H              2.292965422107826              1.7792079507666563              0.3547780953767624
H              2.187513853819952              1.832335979145786              1.0735338495850257
H              -0.45913312136828016              -0.043368203524961596              -1.6309389545241366
H              -0.10101962285154188              0.16065788635224687              -2.2555682520645948
H              4.767666446263577              1.994119843032797              0.9991688287093387
H              4.613602345092519              2.5495270417554416              0.4566481924529874
H              4.44980416045583              4.316383425008571              2.9675553660121508
H              3.942541889251708              4.049651363007853              3.465419431043877
H              2.7398464298220992              1.3437032665881392              3.452546150374072
H              3.1121495371625825              1.9628055004309366              3.327894211778922
H              2.7724677411828837              4.449989684157212              -0.020397074194331108
H              2.5975332150992396              4.076740595435934              0.6233978221815619
