72

H              1.1109791299101446              1.0347057044764443              -0.4274269860041489
H              1.3740427963805588              1.1352453448307978              0.21835557244058437
H              -1.6481117115514154              -1.3999973366400615              -2.2738075256673875
H              -1.898951008134547              -1.576772659194212              -1.553334777830625
H              3.4293054571648804              1.4944357187592618              1.0794149918814058
H              4.068530154946799              1.883238303779812              0.8883482015519144
H              3.9295396204262274              4.6236342221183815              2.6534609590678127
H              4.033373583204903              3.800793250915292              2.58566043304745
H              1.4143529387929432              2.3673994982490854              2.4528019274136246
H              1.9664251378182298              1.9010001996963946              2.62993015737024
H              2.205099095971906              3.838597919222639              0.7400414714260535
H              1.5136698230154737              4.188182109074833              0.7276222574385014
H              0.989238456426047              0.8740120488272685              -0.6002761460369386
H              1.149845903449748              1.0416496355645              0.09783564957056656
H              -1.86414859837383              -1.4839573341946877              -2.5481743958028282
H              -1.9761297937264608              -1.6154175126816308              -1.8608371525357452
H              3.850543556101442              1.3981731990768205              0.7878271934014957
H              4.176967825301377              1.798487022833288              1.281853771758525
H              3.8274298533667683              4.7241463156165695              2.640771019296156
H              3.5271536651101227              4.042556186553154              2.86271761963656
H              1.051064462363479              2.323142700101915              2.5807970154591096
H              1.6643185339664637              1.9659143816473175              2.454588251314762
H              2.186243881636417              3.9832124478535906              0.45114550776597634
H              1.4435666959162787              4.001464151491289              0.608352349069674
H              0.6908540842324747              0.6541623483305189              -0.35238518532666546
H              1.260673174459284              0.9070188636549066              -0.04380449879754765
H              -1.7259255534463347              -1.3861062308667107              -2.7732814002314936
H              -1.47037235712121              -1.5811400234681225              -2.0794152702450837
H              3.87839549087299              1.3186658740476578              1.0163699501875083
H              4.374231440282047              1.9204764045390221              0.9498426328781133
H              4.141342905409882              4.80264254063888              2.778548451613628
H              3.53021084977865              4.269581564408395              2.7087028958993544
H              1.1812054808478258              2.252270932401501              2.720373534247608
H              1.768020739849428              2.0903890769055904              2.41442589681009
H              1.7953390137060634              3.8248329287810563              0.1689460885263505
H              1.7091316524459756              4.1534045420639565              0.8551956136536486
H              0.7054043155073682              0.6446410940541091              -0.4530272537817964
H              1.0969330168543778              1.1369311839785123              -0.007940865453136187
H              -1.4198504754690473              -1.0981125121851671              -2.4244264154695228
H              -1.2998244446472107              -1.5409367343250588              -1.8166152054465576
H              3.898196472584703              1.5175726790668669              0.6838338560776106
H              3.925152867886388              2.2051005862091237              0.7864564141638413
H              4.369794704707328              4.507939601267868              2.5368138986621056
H              3.8199216366116664              4.208800514968325              2.948184646266942
H              1.3576000234241652              2.4583178817228726              2.931122558109787
H              1.626064241202907              1.8218929824948058              2.6334780083658447
H              2.1104156747185674              3.878604505228715              0.2561772078607267
H              1.7162599975083885              4.165140204585419              0.8239413474071359
H              1.2418235766364871              0.8054487433623139              -0.6277489557002279
H              0.9440866164843398              0.7504891707270759              0.07640872807998088
H              -1.4597996133156252              -1.2276356474223886              -2.296436672659306
H              -1.4288880209350139              -1.7534134505774222              -1.7424858896639326
H              4.030045247219679              1.5880151279269281              0.7155671847731087
H              4.328338524899528              2.118560122227369              1.1668242676061975
H              4.3808006707922              4.229314482439954              2.6485641990793667
H              3.8049947307583936              3.9272658907977163              3.0276988415355355
H              1.120031933032604              2.3469717284860048              2.670340850947792
H              1.755713295468304              1.9642836048581824              2.6219582190410597
H              2.4058386468500026              4.164620650927411              0.5690334899498526
H              1.750839268325921              4.089110412886336              0.7838329362628318
H              0.8650493642516403              0.7525885139143829              -0.3201275695816227
H              1.215126760105992              1.3548016598984687              -0.08637158989528458
H              -1.4812344600578562              -1.4261010719054559              -2.283997083945348
H              -1.4309022984032842              -1.5130917847090728              -1.4905734268692676
H              3.733341966400835              1.4697516828080615              0.8259006941549596
H              4.218118974499721              1.9697351352928922              1.092477788132921
H              4.204130888597448              4.258666704891905              2.68998629900448
H              3.744046786571728              3.705852662139817              2.8596908116524555
H              1.3303756937536568              2.274523130611265              2.9771548244572563
H              1.4330347245456745              2.02286319916394              2.363639024051795
H              2.1428663905634155              4.048215659653824              0.45176362471788345
H              1.5912781804632576              3.8939320885741617              0.90700468978517
