72

H              1.1052454021445925              1.0534054192782574              -0.42066562521204365
H              1.3951610998389405              1.1399594932067214              0.19383349162089486
H              -1.6315206492706997              -1.3879269444203128              -2.281956273646231
H              -1.9079046173521055              -1.5859224910981498              -1.5258905314618694
H              3.3899774559524465              1.4918452505540374              1.0824154355829096
H              4.057252072527016              1.882826769279731              0.92001030264044
H              3.9557983706947337              4.598132135693545              2.658243264663766
H              4.023287572060857              3.796313242156791              2.5970463765281666
H              1.4112581249652527              2.3709462532815655              2.450066800002964
H              1.9770024028983546              1.9087897749041047              2.5991485310384017
H              2.2007401501936377              3.8332094141157915              0.7263379698250231
H              1.511323683756769              4.168450697957374              0.7515667610456233
H              0.9887339489229688              0.8595182042987307              -0.6288343382013928
H              1.1743597789057532              1.0820524971229717              0.09080505163134309
H              -1.849665045067468              -1.4937625962654784              -2.559278833201067
H              -1.9754898923559403              -1.608004095797559              -1.8334807785151521
H              3.868117136081137              1.37173330128107              0.7677139568213169
H              4.211517739407759              1.8171967481075793              1.2912859981541644
H              3.8272660782311823              4.720192215702              2.618675442682216
H              3.539593388568484              4.059077147924636              2.8728102608846924
H              1.067257091011726              2.313806542285052              2.5835008103113153
H              1.64747551186042              1.9599126272191378              2.4662153161235194
H              2.204674956866637              3.983846140884875              0.43637185894454356
H              1.4512452480437814              3.9969177932298674              0.5887709729264445
H              0.6758454932508116              0.646864794688697              -0.34584680619674113
H              1.2643530484950058              0.9100040022168427              -0.06453872512157939
H              -1.7241056347328358              -1.4009034395990876              -2.7836533744692717
H              -1.4783242412942694              -1.5771263392272112              -2.088684828221144
H              3.873102096200717              1.301637976006102              0.9953726376354176
H              4.384536425871331              1.9141567352101474              0.9278038310085793
H              4.1216578764877925              4.796969890204485              2.785756313463611
H              3.5166680359079225              4.263239897451159              2.7214348538156936
H              1.1591021336575749              2.2593568571392293              2.7202999334447187
H              1.8059493512953126              2.0928420407522093              2.4289925808353754
H              1.8040758430663963              3.8295348267036657              0.14924433117580588
H              1.724179149004661              4.148337256088173              0.8232806577264384
H              0.7010467059916137              0.6474337077832394              -0.44250744520312013
H              1.0956150911259643              1.1254725089479152              -0.014761964832360634
H              -1.4071619809915854              -1.105366387764403              -2.4452528513749723
H              -1.2799315249079475              -1.5737075865619856              -1.7922792556538665
H              3.890651392146495              1.504603524005169              0.7006070336925494
H              3.9234597635266355              2.2011451457086624              0.7918167431963151
H              4.371585457414573              4.504374031010211              2.5299785422305026
H              3.8164669245108342              4.201011002658623              2.9539096964463787
H              1.3368885095292684              2.443588131902936              2.9265063701900984
H              1.6338532350829502              1.8394817117502018              2.6510257096201078
H              2.1144849493099502              3.895220838638837              0.2703030225753107
H              1.717934123518784              4.161332631586219              0.8173219119198742
H              1.2573107755620883              0.7850223023421384              -0.6216022613380814
H              0.9558104317008838              0.7367889354302809              0.05910606299381756
H              -1.469573845189258              -1.2447354122429488              -2.2661087421781794
H              -1.4379718915087094              -1.7660543659611194              -1.7726256411645356
H              4.02978089451298              1.572484138737289              0.7264368041222328
H              4.318286778384531              2.124480584600019              1.1785059332568883
H              4.37254658102772              4.2372704440718865              2.6198191201746472
H              3.815166474681149              3.9428885878863036              3.038580263833941
H              1.1409239878165303              2.342384576844767              2.6925430258575793
H              1.7304856774124977              1.9558167587457298              2.627093166276081
H              2.4177023075211768              4.157844790222002              0.5941921895112384
H              1.747743528554464              4.091442268936701              0.7776209210601263
H              0.8467453955127591              0.7545847523440807              -0.33089824610722096
H              1.2204839401528267              1.3283806000983935              -0.06475096880210453
H              -1.5006236711717666              -1.4392626628875982              -2.268008980351175
H              -1.4529868134241015              -1.5160627229953278              -1.517127591961602
H              3.717753163427261              1.473284633458235              0.8259689273595507
H              4.211081892949078              1.9619882447444859              1.0750453132931308
H              4.195108372225738              4.271312795126378              2.6891949574983367
H              3.75054626626044              3.6943126803796043              2.848799163659892
H              1.3471864538225753              2.2536987843209366              2.9874313809248974
H              1.432961800258856              2.0400963606205855              2.3182705553805927
H              2.1402437297861634              4.064535795428212              0.46472558996524715
H              1.5969188901240357              3.9258776443451326              0.9218089522809395
