72

H              2.1461808909977935              1.9674852027493928              0.3543912088067419
H              1.8578246493504125              1.9890132386846944              1.0757891421860473
H              0.06463823289738206              -0.2935803895824073              -1.7978366307460605
H              0.1931788196195163              0.3566483255108454              -2.406462374140162
H              5.477669176621839              2.4856742140284234              1.2398012516522845
H              4.755321088936114              2.2310730748115106              0.9465908030270452
H              4.119931763416525              4.575694271597763              3.029329326472834
H              4.072350473926181              3.9144620337061413              2.659853059717856
H              3.4865880975869463              1.2720769243734213              3.206439273546
H              3.415273984633807              2.031455415801766              3.120098435183134
H              3.0453071956414246              4.061375660061449              0.5920844971240499
H              2.6927671094033205              4.744783601405991              0.48142446942593037
H              2.218658830184626              1.6619172175388834              0.7208305560449828
H              1.4840905741202228              1.8211282441048307              0.7225558187601617
H              0.38963412059052005              -0.1981927517860127              -1.8039482023970834
H              0.42921644463012837              0.4980853961980052              -2.130602764646185
H              5.1606029831994915              2.3504082011858825              1.332066195540322
H              4.765536299229389              2.3612557947914583              0.715335542200246
H              4.404525884294563              4.502248463084344              2.9947027401447244
H              3.8472928171281056              3.959221267876173              3.0246456197325484
H              3.4505174921542197              1.165089209576718              3.225755997632253
H              3.4317567530077677              1.9001685536643782              3.295843663802098
H              3.0135947652032606              4.174603986630058              0.2520123182759046
H              2.898279376794028              4.484343754923218              0.9223642364789354
H              2.114770972116043              1.5817035518984008              0.8653304880353055
H              1.4956891091207827              2.0025830977991808              0.9658884558457078
H              0.39108935428292857              -0.39707837998739637              -1.7065411151989955
H              0.46806151146767644              0.2574476994788292              -1.952976675425483
H              5.470696053280338              2.4119140806480175              1.4517253085316422
H              4.936136643162023              2.329220990255842              0.8958552038822722
H              4.433110409393158              4.665163967094275              3.053418176007169
H              4.06319965584223              4.066822977922459              2.9370240179020537
H              3.4376555687129917              1.5103272823306468              3.206777856628345
H              3.2846759725455095              2.1374087326371702              3.0622548981197526
H              3.325600984053743              4.318545180837028              0.28966897797476016
H              3.0579100756324595              4.714304011773362              0.8384580840640887
H              2.351088578017111              1.4995077069987883              0.6290898952096144
H              1.7398456668802307              1.719649283742853              0.95876374612516
H              -0.06723521156447998              -0.5952989177843532              -2.014862116540649
H              0.13796560375774886              0.15997604021117276              -2.137788160593569
H              5.490043892184482              2.5338202012190947              1.3720151498682298
H              4.934609353969068              2.253302705246762              1.0345017752071592
H              3.9659603627909745              4.819288469228589              2.95742451291191
H              4.209745473195493              4.182677301683248              3.200907555776769
H              2.86688149436102              2.101219165602942              2.9968675826799513
H              3.584556669130602              2.0743898720882106              2.8183627517950947
H              3.4188915870011964              4.203672613680749              0.1993139350468691
H              2.8563268921697267              4.518307599680556              0.5491087607099724
H              2.523793041808407              1.590043566924522              0.6752049438974578
H              1.85581960409364              1.970457215318381              0.7307695743965925
H              0.019389482048799013              -0.6173149948036921              -1.9951302870397802
H              0.035708296990583394              0.09128480703846524              -2.324168809734591
H              5.465122958840376              2.4909008045286827              1.2535194779066077
H              5.177033295762081              2.161735961398294              0.643258537537561
H              4.009850569631158              4.7762180030171315              3.0404747781294725
H              4.249819510668486              4.122528830959471              2.836064240779302
H              2.9782202186742848              1.6221840679850352              3.5044827245510546
H              3.2507686462467458              1.968494205065879              2.8398253766121986
H              3.0934073582043333              4.23498532363321              0.4250819188310333
H              2.6226776491320978              4.6735349695124055              0.7271987943201254
H              2.3945869712480863              1.5589676953352443              0.6648550243915574
H              1.7994860408080686              1.8169567194511806              0.972861741549372
H              0.06411690702000401              -0.2674260436874411              -1.701723324765343
H              0.137007706501247              0.11103012473823377              -2.2971932761397262
H              5.459769783638712              2.1369596150216377              1.2596628823685054
H              4.933822439697376              2.4415026542867007              0.7853040678484701
H              4.249476629047597              4.495227173262332              3.2230114560736642
H              3.9986061166954294              4.076107049584718              2.6791309355846082
H              3.3532892622730355              1.5746408155648455              3.3270119829266567
H              3.2210547926090416              2.1779405934852067              3.038460588441124
H              2.8580010402944387              4.191683383344219              0.4370734542636602
H              2.503694405588369              4.843570113862426              0.6318927444385564
