72

H              2.4064977741137055              1.5090024861140892              1.062857404189272
H              2.0437284195283225              1.7700076648759626              0.49645736604887564
H              -0.3632951944648178              -1.2497025872655343              -1.9213800287524374
H              -0.7132289835118122              -1.822202095034682              -2.3540226485138445
H              5.010007345906061              2.172709698514326              1.7003795513583266
H              5.2010948928321366              2.7511566248446444              1.211025842371444
H              4.2722248157899125              4.846585874128434              2.6839983880859717
H              4.121460643908968              4.139294035656595              2.8533801556991194
H              2.7159041981210765              2.038225697290894              3.7107784836537605
H              2.9423596017649727              1.7801615061926233              3.1764623898060464
H              2.9985989830045354              4.448039827901719              -0.06251077358195863
H              2.808201176743444              3.9865894926730885              0.5048303254681926
H              2.1315241449735574              1.2266765234642307              0.9799638063519482
H              2.2266327870075044              1.9256893255177976              0.8934323166712841
H              -0.3586699402809703              -1.2762109503418502              -1.766046833609823
H              -0.8161658855736192              -1.5853255763619303              -2.261421105635348
H              4.991650455849167              2.278406848417103              1.4931029927845856
H              5.220581120297153              2.9751529769974323              1.348358065491876
H              4.545545445379395              4.753719988348894              2.5228646270537793
H              4.581206726251485              4.3129373053968605              3.1376192485286176
H              2.4959656301318893              1.9654181461583273              3.6456623327971296
H              3.0711506897380083              2.109620342316365              3.200829953097393
H              2.877551555063928              4.5220962883546125              0.23541617206288434
H              2.603162239595008              3.8595694007440433              0.47200002734139684
H              2.327391199830723              1.354567453244872              0.9375400866886084
H              1.81923619729931              1.8108345013518783              1.2836634885008826
H              -0.5578642491617358              -1.2806212118878995              -1.6158251591047925
H              -1.2160818902364494              -1.442970493717225              -2.1193591819636093
H              4.720671006143295              2.1953616390542297              0.9797092341320034
H              5.05269418609746              2.9581676132282984              0.9425284444806759
H              4.57746895275274              4.769363510213262              2.603469255661626
H              4.493093809862366              4.496257729857188              3.269880399881017
H              2.8042848012187753              1.7493616443598667              3.81075167538198
H              2.8163156190925864              2.1413446685267927              3.2413840208581006
H              2.840083830167344              4.6877619843349185              0.3004806592235132
H              2.8164556223849146              3.9343980175142117              0.3925662597596315
H              2.3106212285959877              1.6167207848146727              0.749786004205564
H              1.6671952712357054              1.645500631998178              1.1238362140254299
H              -0.5282633347550576              -1.097489393358884              -1.7724633101113278
H              -1.2424487128028625              -1.2790775537715218              -2.1371926801764074
H              4.863996987511461              2.080898913517677              1.3767191165510844
H              5.1707000787442              2.596947327845378              1.0830655450947781
H              4.4333934597683085              5.061541435434688              2.6750697191826625
H              4.293896773072352              4.444391472700135              3.048369143302075
H              2.5982033505567896              1.8039923249103493              3.913791836800529
H              2.843342377997673              1.9481826552634314              3.3035913728183717
H              2.872004517846176              4.384963018618043              0.5262478933534902
H              3.0354720439409517              3.615330717892948              0.36563350495147356
H              2.306109313301638              1.4691629522372145              0.9804559144383165
H              1.8009219078736638              1.9566226804291933              0.8447657312743404
H              -0.3231292508895385              -0.9279246201713361              -1.777916380271912
H              -0.9087253841713678              -1.2535839523122814              -1.9377530328371553
H              4.633163337328117              2.344884851995003              1.5093704403064971
H              5.039185527681222              2.7785771818265412              1.0235752698752791
H              4.389090286135734              4.987614043313116              2.4699965401598005
H              4.541531755529205              4.499286722263808              3.0030331055019994
H              2.825390076751337              1.9662424877768554              3.66115638380609
H              3.1275658902984715              2.4024222487801135              3.2223885245867105
H              3.2044810685721763              4.428955753624305              0.6633384598328219
H              2.7439680304494245              3.985420911776521              0.3485920677740036
H              2.2439380770059727              1.3779240925866378              0.8359118491395119
H              1.7349683970878356              1.9501103906081412              0.8745996965903364
H              -0.4263280609755729              -1.001182065741053              -1.750996234215046
H              -0.9065586609190306              -1.4112522822557454              -2.0757346440844464
H              4.571774018944853              2.3022935762881347              1.4104993864239692
H              5.008256885019144              2.6923647190067257              0.9570140878043331
H              4.019776173381841              5.042960039490399              2.5693356076725298
H              4.375273058385358              4.413474046796533              2.8423338332819212
H              3.0191460847349822              2.0754817462977364              3.6621370412353684
H              3.1418212482195735              2.0531284583526594              2.9474202701993373
H              3.150876636028929              4.509044303453591              0.3307950216412513
H              2.7181586319362165              3.9812426696463286              0.4628405024930264
