72

H              2.230787035421003              1.6578672229278892              0.48504107605001534
H              1.8622719971197683              2.091136539674551              0.9982018136706271
H              0.21560007877405774              -0.42747403081092905              -1.7237602880984855
H              0.09457676365365585              0.2362331490269155              -2.1994167766330714
H              5.241326725526131              2.4326486731481003              1.472186082000221
H              4.7651439332226335              2.0084142184201585              1.0362630632510956
H              4.071913014535245              4.443830296224599              3.241408116557835
H              4.003088697498781              3.9019042065219756              2.6859854946679285
H              3.301469017733963              1.2235151660578627              3.341620735156793
H              3.297979927865988              1.9664429142155504              3.213131441419243
H              3.0371362807027933              4.072997299882636              0.5963298724845449
H              2.7104917545595146              4.724570196165835              0.32869717422741473
H              2.1344371889721425              1.7427607458299268              0.7016274708520395
H              1.3730452708708327              1.746625899669237              0.8870060993395682
H              0.46677264274241137              -0.25150576347495174              -1.7748462113611467
H              0.2665463389995408              0.3826568510463174              -2.0960886858145518
H              5.47586809248553              2.3962121877125693              1.3520525166833157
H              4.925410274015116              2.173869953711774              1.0286878173125218
H              4.279868763826454              4.821452016787711              3.0530613398075954
H              4.010275287312373              4.1534902155324795              2.655817712881284
H              3.4244532471326226              1.1586565302975695              3.1303724617548916
H              3.424357485148561              1.930541440949038              3.229253374474157
H              3.0079589272329055              4.182532300539349              0.48349481035241687
H              2.9292022544774445              4.886200671423092              0.8124952357270686
H              2.16767756642879              1.7263248389060046              0.6161823425393236
H              1.4746335374873938              1.8900643273556959              0.7467435585469085
H              0.398345436191561              -0.413309251951043              -2.030031372984837
H              0.40323416584646044              0.24629656453315027              -1.9639310924018654
H              5.524147258434137              2.466534822667669              1.1810931259396098
H              4.898027303037978              2.2930698931534663              0.8677253610631159
H              4.10074773315547              4.950263702540655              2.9547833642638177
H              4.020026730067234              4.192824800080315              2.9314500768684537
H              3.5181675142963904              1.4622841414791665              3.069364689635137
H              3.322422834265733              2.101788409523225              3.1505399815859856
H              3.240730917764076              4.17486271570663              0.34751932113070616
H              3.0009514908585144              4.779466407080525              0.7247391815360014
H              2.370709016590791              1.3234609840978795              0.7979826684153264
H              1.6889057444937108              1.6332214619067247              0.6637375218156479
H              0.21564102566343094              -0.6455313667921504              -2.160263627791826
H              0.42443733460646216              0.06978162036982147              -2.3001273451653472
H              5.494276740675926              2.4973034397748104              1.6724814904708616
H              5.020663896264002              2.3516168234484764              1.165985891878936
H              4.204893854375934              4.88908261453173              2.927144028499971
H              4.060964139939114              4.181589303580653              3.1408457350228765
H              2.8904871143289954              1.6665361669965049              3.0884533436823447
H              3.563393196266436              1.9620239396814279              2.9560582160436844
H              3.397356774861261              4.159962609871088              0.48241456938079585
H              2.803632324374274              4.579722993558519              0.49814748523774377
H              2.458259048441925              1.5173487682392879              0.688990494679659
H              1.9583996108256074              1.7242637960121991              1.1623321329574152
H              0.29997142919079095              -0.5275516000061423              -1.790323417763962
H              0.31079308604506245              0.078529236650122              -2.24707871057712
H              5.694387162602426              2.549721587775458              1.189276386805715
H              5.121660965116045              2.297395057938942              0.8336346728737423
H              4.247154648397217              4.6146443527761205              3.090277083463048
H              4.339898659909593              4.017745957724551              2.621673234237308
H              3.1772222749315504              1.8927440238516984              3.4891771235195788
H              3.161346054716914              1.9031394619039488              2.711910390031643
H              3.204004322411386              4.149465071312645              0.43225960318314405
H              2.7479548704545547              4.499145658320353              0.8762231260920428
H              2.2061507527634254              1.5496443589539475              0.9306243413059522
H              1.7174543302019327              2.0899749279576847              0.8750571899969071
H              -0.11575910555715146              -0.2682216895276778              -1.6098587798529103
H              0.1670130635798359              0.044731747347438046              -2.1501466169100647
H              5.4508034342301706              2.2472073053318455              1.2410125953411766
H              5.226158860802233              2.275894541242046              0.5307545781831804
H              4.14327557088735              4.480319209456857              3.2128911518890444
H              4.1071950370575365              3.839705658324843              2.795621784094102
H              3.3782140314854328              1.512148191214155              3.2739787815018486
H              3.3680294174428047              2.2157584813069975              3.118404528670049
H              2.896890251896627              4.1420362500576875              0.3281114371535269
H              2.627391840747094              4.683859645559578              0.8106460515378688
