72

H              2.038311581980516              2.246847744996587              0.2452705352354011
H              1.8114147996473073              2.097161032044771              1.0111421660644624
H              -0.7075425079725299              -0.08431599928083726              -1.6250818854162903
H              -0.2125979415063863              0.3269715192019196              -2.152179892926388
H              5.014549668555948              2.189215452194232              0.8561696261724605
H              4.563650672347104              2.243025668238553              0.16091929890358267
H              4.0711900539693975              4.736014315128428              2.938005500858424
H              4.258426473438909              4.033659295002943              3.1556203247881345
H              2.732600810651514              1.6112918431733951              3.5714885618127945
H              3.4471494472479915              1.631379452255041              3.4444861546487378
H              2.736563313244618              4.456591068911085              -0.003738188380725108
H              2.6439590849027104              4.651160476281356              0.7496326505279665
H              2.354654565282316              1.9323966507102353              0.31793826954394305
H              1.6200702719192872              2.038127051386077              0.45789633650363554
H              -0.7255846311883086              -0.20499850972485095              -2.1124312055537358
H              -0.30164780301755              0.32795834111434              -2.2776187583611898
H              4.567042805454625              2.099374944202028              1.1566312139272963
H              4.2079932824546065              2.4425116854909725              0.6270289214475249
H              3.785099619643225              4.671832729304333              2.819242089117036
H              3.918405896819123              4.284179653023743              3.4894749161749163
H              2.773972536860769              1.5558849262855468              3.178128315902754
H              3.4120434203472936              1.922043294473275              3.4565018061597144
H              2.8598576296207248              4.362292668970041              -0.10581787830751871
H              2.5005353291317394              4.649858973240774              0.45385934789676513
H              2.247976608436521              2.0813918190053666              0.15494291719784506
H              1.8902557876320463              1.6151033465625277              0.6307910511705469
H              -0.3208169447655771              -0.20839163274625888              -2.254698357979455
H              0.0019490092250780185              0.29636607341107635              -2.539692081241417
H              4.96719427966314              2.3758942635097733              1.2012457183366898
H              4.309025834329271              2.474794629303306              0.7923209471051137
H              4.109738290549866              4.935286679516654              2.6918361797391093
H              3.9213188224936752              4.346694972447824              3.0584722610902566
H              2.9817047764142943              1.2086151135422203              3.274318429886789
H              3.0628810977736456              1.8787396531387246              3.1795230078771084
H              3.0911018160483112              4.464358772535163              0.16458768049535674
H              2.522885312571276              4.663259722313947              0.5499211123521035
H              2.2116858760316753              1.88911745399373              0.4000315454186432
H              1.9620933810241374              1.3892251722294382              0.7922849536645774
H              -0.37873720129351374              -0.03844027844196956              -2.001088958708612
H              0.21967632748712784              0.37437519242671574              -2.4114832160332953
H              4.902034989668618              2.1279745563609542              0.7036143459983264
H              4.553689070266289              2.7898895527148078              0.41612158992550063
H              4.2685067413799365              4.65573001700429              2.7154660844183476
H              4.0624628197885295              4.419405691933313              3.37049275479337
H              2.9356076399371127              1.4506879984497323              3.248640321259786
H              3.3809440525737706              2.1153061027731392              2.9830353298094407
H              2.8646155119985615              4.695133830197332              0.05491629782741162
H              2.617910288406549              4.321427317285867              0.6377477698321166
H              2.389528130983531              1.712154342372728              0.42832266078357706
H              1.8939748011146755              1.9654171372342761              0.9601218401798066
H              -0.4900292748899374              -0.08578948106434914              -1.910667849239458
H              0.02045707938354125              0.006116108015422626              -2.3249500495116395
H              4.7384754652042105              2.0756296617847907              0.9241237669929335
H              4.8910641394367325              2.620666351365664              0.43584624609061495
H              4.311995872971868              4.259758370436257              2.9035795619745954
H              4.10058346256181              4.294908913743306              3.5734713043176045
H              3.0616565474822353              1.3799176540938451              3.2075515251278186
H              3.056027297371747              2.110905170399735              3.114270506739243
H              2.9344283721049145              4.68044974794535              0.018055510585086604
H              2.550101934706359              4.296892718539694              0.47047043726777266
H              2.298007335383922              1.7646105151454505              0.375598159392809
H              2.1747927599866195              1.836020167902292              1.075278866137653
H              -0.4419067857007054              -0.04045316672317506              -1.628251818425734
H              -0.0933128346139774              0.15765032977931007              -2.2425374012857904
H              4.769223649645329              1.9902742490557228              1.0140439433978647
H              4.616527355016395              2.556826451841013              0.4642113906057248
H              4.457409115198929              4.310791196164882              2.976086485850389
H              3.94534464231856              4.050723311429076              3.4630060832211957
H              2.757158471402583              1.3510914857238134              3.444974294979968
H              3.1076155681470836              1.9687952585749264              3.3265973479929487
H              2.776415753955683              4.457802193345967              -0.02232014602842957
H              2.611174278378147              4.078638092449614              0.6260402136765083
