72

H              1.4590503385961382              0.9842686630767676              -0.6907529017165144
H              1.3251341617644352              1.2751205276284758              0.01954032450311397
H              -1.5835453573987937              -0.5877560986210739              -2.353006280637439
H              -1.2301126495318426              -1.019583009290625              -1.9702794202507201
H              3.939046303812378              1.7312720204955587              0.5950724373567216
H              4.062637532695055              2.444210383735798              0.8873158485325927
H              4.357040569607495              4.433908205009619              3.105551652524622
H              3.8568357709526233              4.311708106854829              2.4284038550800413
H              1.7406361377469215              2.474437571150919              2.4805385769420654
H              1.748679280695614              1.7636186337185515              2.6514860884185465
H              1.7280149557532634              3.5929323359392606              0.3840360562166712
H              1.643368711045432              4.184478845240661              0.9048513587760219
H              1.5378163363702029              1.2051476353207202              -0.4485690788697101
H              0.8890824484365876              1.3288257721524819              -0.19729378090808264
H              -1.4432368426604272              -0.7958042611568774              -2.365981595348774
H              -1.1386558877131796              -1.0812886547306226              -1.7265468334928047
H              4.248384987893023              1.760917689237263              0.5115232522318824
H              4.459896988270694              2.2715892437284535              0.9572249052045317
H              4.291409181078375              4.225797434508049              3.1614023786393473
H              3.6811255475462668              3.958117379559768              2.7519699346574367
H              1.4455461791178688              2.5301596560121133              2.5538064707038055
H              1.5166367142599637              1.7837550543107326              2.626417103472414
H              2.0277463259906705              3.94703121812334              0.2167569682787864
H              1.5365560475111864              3.8994025563575754              0.7523290161231879
H              1.740079286940847              1.1207916049843452              -0.5265851163614031
H              1.1488192693759587              1.3029269833673396              -0.06633382927874397
H              -1.4488596044916229              -0.9729325002047581              -2.38103821366379
H              -1.0915253412009969              -1.0913072024589296              -1.708638207155158
H              4.019551543936849              1.5748532092094405              0.8134921530957167
H              4.579008363300925              2.136346035282031              0.9510227529714381
H              4.144715811888664              4.250143299568938              3.256129731547593
H              3.7750145520116303              4.017239844750617              2.586849953662389
H              1.3928635413747819              2.421542236957432              2.7407136701785872
H              1.6084853334560854              1.7983195802453615              2.952792592912449
H              1.883761463373306              3.681159599409018              0.16587558083578133
H              1.4912388342709753              3.877544997113729              0.7943758212368498
H              1.7278670963589973              1.1524819284502539              -0.31359914312426235
H              1.000304737615166              1.1566191142683309              0.017206184943220952
H              -1.6368715660338249              -1.0417904369778308              -2.347909340949774
H              -1.4800540369576387              -1.1150200616675272              -1.6768092422927805
H              3.899591575867366              1.5709328909279678              0.811708309257841
H              4.282741414540266              2.1598817733884044              0.6585200676346773
H              3.790855893619316              4.651046869630815              2.86250143489736
H              3.978338380774201              4.053487990251072              2.514805649322594
H              1.479631243862328              2.3216208320811638              2.7853778701526117
H              1.5353156870387337              1.6637474180763703              3.2001388769742447
H              2.0180066540852              3.8345689957458946              0.5676499971547061
H              1.3545646232949045              4.2368077443814105              0.5962443375387502
H              1.5579638373201323              0.902811649498965              -0.4845248755786795
H              1.0686614988232501              0.9613807754669214              0.13387108095509714
H              -1.9643311252608984              -0.9285864802756894              -2.6193658224504386
H              -1.6913844727528922              -1.406723716944308              -2.0026864004796647
H              3.690945140784731              1.6793485075402295              0.9316906942810285
H              4.308875285455137              2.0706133460928378              1.2398536768401682
H              3.7219716732367147              4.676631352213054              3.0411263774340496
H              3.6834505824542667              4.148329687631112              2.4895305796041964
H              1.2357753427131155              2.2465785542075123              2.3669332917115637
H              1.7808304386291987              1.9744646280098341              2.86096205965588
H              1.9752332597261668              3.902731502965719              0.6823763456519477
H              1.3231846503525873              4.067730014064397              0.82114624820126
H              1.14584081203134              0.9288688128748199              -0.6353459103734268
H              1.460652478789107              1.3069870632076817              -0.1227414146901927
H              -1.873463355707107              -0.9166058242775014              -2.5553273650119595
H              -1.1474351541519485              -1.0765540089914651              -2.091337922802211
H              3.852054401407722              1.6852762098567033              1.002605970141089
H              4.272601002482743              2.299256004299025              1.0637339212663564
H              3.9315327835529263              4.550731208865333              3.023479971531003
H              3.853412666540081              4.40089485318663              2.308023884150463
H              1.0882222048109986              2.1395844295979196              2.414113821554966
H              1.833219172143124              2.0454432760999026              2.7572424703532032
H              1.5261898934981748              3.732220906944171              0.41524051847383897
H              1.5417971027699164              4.021220898154903              1.1127043418560583
