72

H              2.1402894563997164              1.5354231982235444              0.9095132948891115
H              1.7412593506609195              2.0247837256222385              1.2865810137999585
H              -0.16058662258765138              -1.1273408409660692              -1.70179067383117
H              -0.9404617882386579              -1.1325407871378363              -1.6232928819520673
H              4.7740618249444235              2.052698635672065              1.085978740279303
H              5.06751832523155              2.726919105803885              1.018001714934692
H              4.360440471788463              4.938146993002666              2.5934845334299186
H              4.413716035424918              4.737949921206825              3.2908151551572304
H              2.354040277746972              2.048573540284102              3.75217894927832
H              2.805953201102703              2.381181762591857              3.3278181147675725
H              3.0338358769894005              4.353206942571733              0.4254188594085817
H              2.8473790359026303              3.7013241345693007              0.680765074934181
H              2.359066387700163              1.9178424666294616              1.1905146840901588
H              1.766073797106281              1.8427879408954644              0.7233319301852382
H              -0.321167243164393              -1.01183694107308              -1.8054186707437085
H              -0.9788235250608917              -1.333523722852031              -1.8271983266931673
H              4.675278516344018              2.12183720635884              1.3125196881454708
H              4.936723875176984              2.829510162026692              0.9999416334327887
H              4.243629877329741              5.06651002336053              2.367945146685013
H              4.128774250592439              4.715802576754272              3.078877873080066
H              2.5215313821996435              2.3094619309500644              4.03568190457867
H              2.858304288047533              2.365286249537825              3.3299308609191995
H              2.862621799845175              4.264915012737255              0.2258884727637179
H              3.0376166471450636              3.7468564484021147              0.7174475599340981
H              2.5008725674053576              1.4973032209224062              1.0764048298344322
H              1.8976570456633852              1.642303761056829              0.6584167465758677
H              -0.16575570001900197              -0.9358734165686888              -2.156038306285821
H              -0.6554065703681108              -1.3690609592798904              -2.0675533371100814
H              4.718196289740884              2.1369316311656084              1.3419053070159395
H              5.058726533320758              2.740103680552066              1.327613773945418
H              3.8882613275406754              5.146967158505469              2.4322590621809814
H              4.152362684375647              4.61071403536773              2.839459226787207
H              2.54169676638778              2.3423777714877585              3.6317595164794283
H              3.122147881332156              1.897880869621227              3.2027517537351304
H              2.7152144515822254              4.226732265753783              0.2630396301401345
H              2.732807494484176              3.5561660495200074              0.5552707530836691
H              2.306192797151124              1.4600366327526797              1.0821312607325633
H              2.018707458190136              2.12571445691489              0.9417966857503851
H              0.22617307416267757              -1.1176381520890495              -1.9053008844142416
H              -0.3485888617203024              -1.5036836513037797              -2.099940773971245
H              4.755327721897758              2.1918590711105157              1.1674780209161835
H              5.195759181040619              2.8469122467250823              1.1537369929380865
H              3.90881921322611              4.748444806581669              2.5310634381267283
H              4.441579106895717              4.529823491604318              3.0726036926477396
H              2.5614083826353884              2.2886204203987823              3.4933662615839562
H              3.259752041068323              1.9371937554940972              3.1342379322432836
H              2.827809934687163              4.535569268206652              0.3582033037049114
H              2.6539317462588534              3.8600123983929406              0.34369281497388615
H              2.235447746716307              1.4474776764736017              0.9573279228383986
H              1.8135768389189757              2.147618645008915              1.0901941384894904
H              -0.03738237533009916              -1.2925793596545996              -1.6647524655231847
H              -0.629006805253214              -1.3890652034975548              -2.116913876788188
H              4.921876138902213              2.0405262085746854              1.1265171341750277
H              5.025248113617394              2.712903127386867              1.367403244087882
H              4.211055144732508              4.714975076243905              2.5327655270536096
H              4.442726153135807              4.505782234795354              3.2866486572958546
H              2.643261073017404              2.317018990564162              3.5394691289660765
H              3.000526128004398              1.619512096122174              3.552773659089466
H              2.7235467331273613              4.520879574019362              0.2207171406848545
H              2.962902334062999              3.797083210098595              0.22815786020608725
H              2.3854511334629573              1.5958273419723634              1.139829771383832
H              1.8350252540727936              2.006860488716622              1.0674369983856282
H              -0.11108842746342562              -1.3517611630673272              -1.8481726101922296
H              -0.9176130239199379              -1.2214503723398409              -1.8747423133256227
H              4.86987887143388              2.0962245582646064              0.9982448101740837
H              5.084867244031494              2.68287062919771              1.4978252388953621
H              4.5789749515309754              4.823839304779337              2.584242970978246
H              4.410814857019618              4.651369237298764              3.2377381509692174
H              2.3515790847760814              1.8067644395193774              3.83266858462719
H              2.981479280489184              1.8338713250464802              3.345073207414375
H              2.9587987040992543              4.502195718093482              0.26029974590067734
H              2.879327095444004              3.7985438946616923              0.4992807695831692
