72

H              0.8087199593149761              0.8262366302239117              -0.3261719859832776
H              0.8835985811972991              1.4839418272904186              0.06673429815972132
H              -1.5425508381361062              -2.158822371966135              -2.1360689877348396
H              -2.0903545055442425              -2.169052165262536              -1.745295222150275
H              3.5680396451077323              0.9696377977676698              1.1057711285705423
H              4.089318326982016              1.4622045074735435              1.101353906380421
H              3.5361960140820234              4.0469753982962695              2.6353226884893486
H              4.197432435437306              4.078396967078658              3.0519705980744245
H              1.5968271543956558              1.8835090596317674              2.773998740633326
H              1.8044238955268985              2.2294785541253312              2.2128310155561772
H              2.5526959576967965              4.048913124364562              0.35098298721063453
H              1.8640708390526965              3.9343568516253633              0.05493695367870218
H              0.6397423874924443              1.0730997410978915              -0.3706576725976727
H              1.3664180194832294              0.8955462254094521              -0.21825847525024622
H              -1.4703610311617166              -2.1928281970213983              -2.484476021489566
H              -2.094723483755845              -2.2943004468178887              -1.9738096436324797
H              3.7017429789281038              1.007623252962674              1.2156051207442347
H              4.34426426287524              1.170607411804461              1.074264275995173
H              3.669608508223351              4.286243055889325              2.567072976870053
H              3.7801290606115083              3.9866637615569624              3.248612750326055
H              1.461253124669441              1.8723029471858434              2.478935939004976
H              1.8700213750234993              2.4893745943757657              2.41004843894583
H              2.395686551458423              4.0008867148012115              -0.09652499407449512
H              1.8738392822881529              4.121884289540577              0.34765626941609995
H              0.47596829724842143              1.040976600580758              -0.3912578856075359
H              1.125157167409723              0.7557822652658889              -0.26394550663722777
H              -1.1812224260135236              -1.9911732695223237              -2.4284044062181462
H              -1.7213947483604404              -2.356096046765062              -2.0517072308274877
H              4.079740188056377              0.755115897529185              1.1205456468915798
H              4.222919020154394              1.4925040407582915              1.1567407306462547
H              3.6924106229904785              4.022173452679145              2.5901006582021613
H              3.831467468680372              4.473947305787874              3.1563244988737122
H              1.581642954065333              2.1152954983044907              3.1178641038697488
H              1.410696150723263              2.1712495828855656              2.3966378960823875
H              2.4699265557383563              3.9289497964799325              -0.1638857061953697
H              1.8236519957697939              3.9332240689240945              0.20234986837618435
H              0.7242186638546313              0.8163162505269074              -0.24612605094549395
H              1.2914492823720165              0.5552112627444987              -0.6218799441678521
H              -1.1993753890977625              -2.0641495412482076              -2.501443607781858
H              -1.6752053666418565              -2.2547671517203387              -2.0290957942550714
H              3.8795701656847967              1.1314690014333264              1.1886266347107441
H              4.245181451530298              1.5372826055245166              0.719291409598578
H              3.674629069059864              4.091424700543081              2.5786824692634434
H              4.21246085642619              4.364827016060013              3.021093085581791
H              2.048996646932808              2.2360673337236703              2.890718101425875
H              1.6447217563522403              2.141763485712344              2.335756769561755
H              2.7666226119965587              4.022164741992994              0.05746468782633493
H              2.0809712217363425              4.213778466145826              0.3937270221359004
H              0.8678121680716406              0.8166442918110652              -0.08306011673419107
H              1.1201087572657877              0.8508137852086544              -0.6869354469195759
H              -1.0479491965071699              -2.117106254409175              -2.2502586355007956
H              -1.6162456808549313              -2.175682926793959              -1.7188935469489308
H              3.688706588245598              1.0026636014012074              1.0215488728245194
H              4.048833910964892              1.6380689916466786              1.0548652712867883
H              3.7912833730501343              3.6123233460917734              2.6710333977656426
H              4.178711287919721              4.023625144954417              3.205563131623834
H              1.6226182780794929              2.0658987356605074              2.9245719591579733
H              1.446251127109298              2.2029998034480287              2.249581283033964
H              2.5165554358154423              4.304117027795379              0.09673128321025133
H              2.232622250844276              3.9747812083213554              0.6979331616970651
H              0.7761991218171468              0.8129426604146212              -0.2078161534415488
H              1.3643240420262246              1.0261666471858502              0.12476314490933046
H              -1.1383787680020867              -2.096189469203864              -2.0163984461236395
H              -1.6961042847012409              -2.349576498209102              -1.5668458627362203
H              3.633670355453874              1.036375213092544              1.3964004087674065
H              4.191300137575056              1.5034176138713484              1.2903084633257478
H              3.92934114984252              3.7259408288896143              2.5893235695507513
H              4.367078892753099              4.063258261539919              3.1012282834809737
H              1.2976164642388246              2.054688280690826              2.7459721058671773
H              1.9954746097161538              2.042430235381612              2.2630292801740732
H              2.5537207541443787              4.232580985762291              0.6399014739112251
H              1.9834374265226762              3.84194981257029              0.33294198967763367
