72

H              2.1673868443858484              1.4117460489582405              1.107350940775086
H              1.6096842516768712              1.8199578800343956              0.7776674629558993
H              0.41271806711114983              -0.5108504315400549              -1.5306184855430423
H              0.16178189533653206              0.09850468195231982              -1.8907846348384878
H              5.446697319615197              2.348338038657747              1.3462028686831247
H              5.170989584229813              1.9692310346477417              0.779501082946809
H              4.131564002165875              4.664872817915333              3.298816151021911
H              4.121755863693938              4.125835894574921              2.747084635452264
H              3.2333340297102096              1.3744205409817942              3.2557747785998887
H              3.1666348567233444              2.129843860472423              3.2044690052253535
H              3.054549421051646              4.191716945326423              0.39294617623447436
H              2.866021883401644              4.7665984861771955              0.7754282080715538
H              2.2126634779597674              1.5997210933228083              0.6279588915334638
H              1.6871556730442057              1.9941369551697923              0.9111046040832351
H              0.2687891687640757              -0.6392689619294754              -1.9044832069735234
H              0.002851381415197677              -0.028695914107938522              -2.091550872284005
H              5.604962396513942              2.511995377403757              1.3360958079105927
H              5.16541500243665              1.8970384097727506              1.2379216154926151
H              3.810094397682722              4.866990867192533              3.060381716329698
H              4.226233216380646              4.39682196432522              2.734617597764055
H              3.220754023448097              1.477291542886249              3.0746129970193516
H              3.3224054266520366              2.1547404801910206              3.1174042226302188
H              3.076013689662622              4.367434532371786              0.7111738583807236
H              2.813318550864584              4.837059463771164              0.2593000361658175
H              2.4406539550415753              1.6139387348075425              0.42175414688208046
H              1.7320319033667682              1.5096727903103884              0.7341117601251963
H              0.44473237266530835              -0.6158207546984781              -2.3108751295810515
H              0.2036862582212005              0.22727547727592817              -2.249781099648797
H              5.559368686621223              2.579036683331539              1.3178234271693157
H              4.908735487765445              2.112123824407733              1.1754759441978366
H              3.8580850044416413              4.979397719600663              2.9533373538546286
H              4.081094479517398              4.325592646977882              2.751000259651074
H              3.1553106662484645              1.2617445746740434              3.0162422248139324
H              3.403114106837302              1.9240143163846586              3.189532199883947
H              2.996251671025546              4.054154524334644              0.6388055134796509
H              2.704687547787586              4.661090529941733              0.41726158401830554
H              2.195223209042905              1.6724203025839939              0.8944907234414127
H              1.5967944527921571              1.7936195878053574              0.6200839184104077
H              0.6221752486264734              -0.5070181122531482              -1.9053916465252763
H              0.7086115071037317              0.23852518154018856              -2.229174282223757
H              5.648363509847667              2.451253574912953              1.3585322592724558
H              5.176566581336111              2.360984502152685              0.7480587326965052
H              4.311160745715568              4.661550239346828              3.059061179127436
H              4.078280917687728              4.195332624134513              2.5056420249481297
H              3.5342432975652893              1.1688441793622244              3.3914635870777907
H              3.2544150511549947              1.8218304539638366              3.2316406063465366
H              2.9666359973891336              4.069890026354363              0.6673887799248666
H              2.802121496530843              4.781015401917709              0.8867890194070914
H              2.154292996235616              1.3771690484804426              0.7103723430821278
H              1.597588456075738              1.7864549578209956              1.0716715984484753
H              0.3633814641928024              -0.4025147440973727              -1.6757617077920308
H              0.670371609114954              0.12420673990862946              -2.0934089633518216
H              5.530131097132627              2.404123836830145              1.4841532754011049
H              4.898721337727624              2.3644464456722956              1.0493714913140595
H              4.359440316040263              4.494288185334598              3.1507639619527468
H              4.080858446096311              3.9232029348631503              2.8531502463987093
H              3.4658505329205105              1.6200774305074008              3.489371582759818
H              3.433873634298588              1.9554990574368476              2.905442982973874
H              3.256996111689421              3.9749791278569173              0.36106226058736546
H              2.8559838482025492              4.521059881567684              0.6735539190722416
H              2.136740636702823              1.4260625748585614              0.9097397029147118
H              1.7387807756250104              2.041179088551707              0.9479668081017044
H              0.2572425636880622              -0.5439604479393382              -1.699317033119103
H              0.3680873472339132              0.09370917471223852              -2.0868621413602884
H              5.419210616403235              2.624253123792442              1.3686181545478513
H              5.159587853169215              2.0027565341714277              1.1615175626549992
H              4.167665470173574              4.6401272887261165              3.0732472043300416
H              4.334676719115192              3.9605428222311927              2.814152112121359
H              3.161803768446432              1.2561315952981411              3.3633677751500914
H              3.3662394264862097              1.8280529493155795              3.0726896740233367
H              3.3415991511809966              4.005856767267423              0.45463530144180936
H              2.9600820547885376              4.5494187636616426              0.7448909426220821
