72

H              1.4910880031654485              1.5957143962007068              0.19504415184244395
H              1.4253693145669013              1.1683171091911946              0.7771825252900479
H              -1.515927500417269              0.00737982075935109              -2.0780943174005513
H              -0.7825326844988986              0.0037648948189680158              -2.0196841326028045
H              4.398085418383866              1.646655151824431              0.45659989685005253
H              4.345814640875917              2.4670437540025887              0.3840055692559435
H              3.474745530989855              3.990384124462744              2.6164264011620766
H              4.028872978153482              4.550506551956042              2.8744563597841095
H              2.1216661030920414              1.7878813028870477              2.729199114882471
H              2.5668577736329388              1.5770861139509227              3.266479170899225
H              2.2837313977331486              3.988630689583811              0.33910224761944996
H              1.9930519206873372              4.4830261471192046              0.9336486187062423
H              1.4703111964763869              1.8657263231064203              0.3358009755187835
H              1.1513790455282873              1.195570992913633              0.5117589922781602
H              -1.4040472781269515              -0.17074536570756602              -2.36858163453948
H              -0.6799790068804114              -0.07918903393371528              -2.1950746142668915
H              4.100736873813892              1.8853722746964277              0.8619405886802052
H              4.614258976920361              2.24546799996172              0.48706208119101574
H              3.3596256102263196              4.096914987072824              2.816785277728475
H              3.955247067502474              4.549205230380923              3.0072210726982123
H              2.189701650392041              1.9619522023815126              2.5215574509261667
H              2.565729404624476              1.6074399736992002              3.005264064273525
H              2.4233115297491947              4.254587862987531              0.17701084404069925
H              2.066205513951912              4.355758781430459              0.812152510795563
H              1.6975324710659898              1.579644366612535              0.10264212051391765
H              1.2181428197275703              1.3027092447944              0.5771958647561595
H              -1.0329067550993676              -0.26763279405620427              -2.2891704929893497
H              -0.41527451664997045              -0.026681522317855453              -2.336303474605896
H              4.325582501930338              1.777624964683976              0.8632544453424968
H              4.49925962447804              2.5476075786259074              0.7199882533409823
H              3.5367931176128105              4.069001366072317              2.800525078103922
H              3.8157504296707447              4.802591703723592              2.8910216992297193
H              2.031011763116103              1.8726765594260664              2.5444130300794594
H              2.5627778382737403              1.845918036848925              3.1110265359217544
H              2.4797265855849724              3.96651325805003              0.2208583823768316
H              2.132192165325518              3.9488753799283116              0.8533542215676898
H              1.42824742566495              1.9509272254928438              0.15679235766176555
H              1.3463860229933746              1.2361391641687949              0.3981552317337865
H              -1.2297589475856137              -0.2130060085212131              -2.3888706228804995
H              -0.49741117727171624              -0.2625389429268991              -2.3192149681318517
H              4.756120775128257              1.7625158283792617              0.6091963648685992
H              4.69708930679147              2.541152778589436              0.36501985893453326
H              3.560663210675308              4.306823454722304              2.858238999449744
H              4.076757589031934              4.76454431259676              2.6578321288246576
H              2.520410602794163              1.604116259690947              2.62808671265865
H              2.3147768490549656              2.174354919402852              3.0983153327181276
H              2.6035399745387586              4.043483512541466              0.5326363582727235
H              1.9059875575498406              4.282697801127264              0.6742675350769695
H              1.5939508104003621              1.8630308957583368              0.17654154655187818
H              1.4214621495310051              1.2029301784167428              0.2405160698815344
H              -1.3610413717145016              -0.1448314780751979              -2.2278700269217198
H              -0.6331897541821983              -0.42011778878376943              -2.2693574162595556
H              4.10973118258814              1.8170499894602006              0.46409847782033176
H              4.574732008353785              2.370771265186996              0.7390583479090842
H              3.5856420648029887              3.9527659377258093              3.0682154640473405
H              3.997310400260984              4.531319295105505              2.87058882596483
H              2.1350435757218222              1.6257807731322778              2.6158761252827776
H              2.4246130969154747              2.1126759926407503              3.2091582989872833
H              2.274199126404464              4.307089285918487              0.4376553045624047
H              1.8523453363163644              3.831380180326929              0.7930488849798712
H              1.410494891899339              1.5986003823293626              0.10389300673355291
H              1.6032468504115438              1.2117946034610303              0.7521550244111687
H              -1.3585925482194718              -0.16399542639620998              -1.9081183323469995
H              -0.6409065101606489              -0.2831965928427772              -2.267731554103577
H              4.446044166799108              1.7149570993025742              0.7395370916028619
H              4.570559063875242              2.404103789129987              0.7325330381263294
H              3.8022309979730244              4.006979013091852              2.4544290934570525
H              4.107811604928774              4.451847414633069              2.974938168156122
H              2.006357239533541              1.320909319693017              3.031457289767144
H              2.4354492649174815              1.8068214389259851              3.1227686726940203
H              2.160562093856964              4.19263987708507              0.4679238608508293
H              1.9778985262094773              4.320622960935165              1.1577089701852452
