72

H              2.2279116095535274              1.710601682713215              0.19380704372035157
H              1.732291117947591              1.6975827158954377              0.7855977549403311
H              -0.6492106402857792              0.11671489538166367              -1.8971983412135134
H              -0.22144225704790482              0.24281644177792186              -2.5582772431655596
H              4.414793981318827              1.9601434029044147              0.921890427447673
H              4.332873741884317              2.6334483989302235              0.6853444158557226
H              4.143975842703474              4.344548163082593              2.722196419116006
H              3.8854697904967432              4.294816752524668              3.4457187594412195
H              2.9613127807901147              1.1008620619460334              3.087922102340442
H              2.8817829695167787              1.805305682050485              3.3775561633989946
H              2.6002523658391117              4.480988852790149              -0.052357319042536835
H              2.5101014823726095              4.438921025316505              0.6914411228437362
H              1.8058552699041086              2.0942161963947172              0.39076533082465964
H              1.9570073815363345              1.6281797428439708              0.9483032217002061
H              -0.4129511072908698              0.09302654068286263              -1.8320092677422644
H              0.05962386855500151              0.4322659262543576              -2.227002602575594
H              4.948612050243515              2.2073788339000693              0.7407579929895941
H              4.40670476256839              2.5271845624303038              0.332301909746834
H              4.28761881664814              4.581388362108785              2.6974563256302
H              4.026144634826904              4.14953953118188              3.1989414094981785
H              2.9568817804754626              1.1245267017511034              3.33793955206356
H              3.0030151237045293              1.8267000176337105              3.283420106094848
H              2.8851186718345208              4.4081295413756205              0.020878320746845258
H              2.6867257010462366              4.473609019531631              0.7381487931797805
H              2.1754599991671255              1.923102454818265              0.4973896676998282
H              1.4816958720060802              1.7347929277859346              0.7555084564263391
H              -0.7644778622991694              0.04282423603480022              -2.0796906520587144
H              -0.06798919011142872              0.1848064913557252              -2.0279612005187526
H              4.510002333792879              2.0269027100274912              0.7650355397488999
H              4.644301973546922              2.5676608338115954              0.3114934330345195
H              3.933549100745487              4.242903395295681              2.9567655349026505
H              4.039058985906106              4.519260053184862              3.5887678242864802
H              2.756473999168081              1.6308027883383749              3.056630081239294
H              3.3535271703415686              2.0326488027814813              3.3743650099796914
H              2.8654344539718175              4.562645227890351              -0.06313198378867371
H              2.631304328967442              4.202280924363941              0.4897549221874115
H              2.2539295039769267              1.9710753105962464              0.19510714939114648
H              1.8131075053196282              1.8431314536819337              0.6909296624490326
H              -0.7740934660215189              -0.3776217940716525              -2.1195080491124445
H              -0.1740318296915166              -0.0004409590964379109              -2.2898719097757043
H              4.5457718197122805              2.0558568471514382              1.2138330542857962
H              4.6151218081138              2.4600003384119455              0.5185923337128678
H              3.9031217317049416              4.4094598725110306              2.8028328291886595
H              3.985765818489949              4.497571248126504              3.511573749610236
H              2.63452401463445              1.3732876734110786              3.3808580276468856
H              2.8680817606714317              2.081973627435078              3.279510165561323
H              2.9051542123514147              4.609022651574885              0.09622312173879792
H              2.475710141107904              4.063742306965302              0.44866163244205715
H              2.0627992284433763              2.028003531015599              0.149725512168974
H              1.9931129580867786              1.4934105874218573              0.6838318482309583
H              -0.8659979036170474              -0.143033387002981              -1.9758761036979078
H              -0.3168026193369975              0.09349713586828882              -2.4375591464104054
H              4.757118640073438              2.0119407707405887              0.8921179152421818
H              4.487944706871346              2.5176329519592144              0.4862843402365691
H              4.003337784828291              4.705274644926991              2.6236483953360907
H              4.033265875975797              4.490780397967509              3.2646008537455997
H              2.452531558347904              1.5751247350936697              3.4108446889684108
H              3.1700794277190028              1.69644223334769              3.388127636052034
H              2.73463682611262              4.514990819127247              0.20384177087635588
H              2.25741715118601              4.303986285750504              0.6907292763971454
H              2.0445596480447814              2.1537095469330905              0.07664885377954922
H              1.8556420000960085              1.7439607473188756              0.7004254791380408
H              -0.9758750220854999              -0.051084732602579765              -1.9752664140143434
H              -0.4065203733064478              0.15553239628356036              -2.4796400740161055
H              4.682814820250549              1.9927357006778692              0.6544811628695797
H              4.436979910190731              2.5166406891489803              0.27246710872362856
H              3.8602482116604158              4.638712667650809              2.6586319133485166
H              4.179493661649529              4.395245510755759              3.2576261982031247
H              2.553167254771284              1.4594851821792643              3.3744501651984753
H              3.2591123253596406              1.5817497619312457              3.316515373677547
H              2.647950442536349              4.5861417598364405              0.06156781255175126
H              2.2330771098001216              4.648112214938275              0.6566309178470489
