72

H              1.857423093984933              1.350407077064666              -0.3168523066914434
H              1.3116018650586938              1.1157030550262472              0.08276719396160633
H              -1.5018473968462698              -0.5279379144069666              -2.399182477423313
H              -1.0459467765833979              -0.7118881853033348              -1.9568261784243124
H              4.1565053029549075              1.5708531376352097              0.601018576335553
H              4.4082773947266825              2.3416699164081947              0.6327199694698297
H              3.68465479014033              4.433735724744241              3.20797119356906
H              3.8851131482617984              4.409647765196079              2.4435098212902364
H              2.0763362917396466              2.1106506904418434              2.670692723607648
H              1.820401418735279              1.914660755086974              3.313220634510266
H              2.1175206302153673              3.7546885338258487              0.49836318157333076
H              1.4428344804742717              4.118912842826113              0.5806087386801985
H              1.7053833456529222              1.599357186479088              -0.2697606121421606
H              1.0726713151647707              1.2436222322461061              -0.1157507473448522
H              -1.803389381511737              -0.603077351763056              -2.480872519632071
H              -1.1742628659029648              -0.9418395843137164              -2.141611613524665
H              4.003348544975594              1.7287854110567302              0.8794367346187301
H              4.512050884965587              2.296630112788832              0.8857718798738381
H              3.5198349236134256              4.35154094579282              3.0472104701540985
H              3.9531199981367067              4.380107987589497              2.4219006336795457
H              1.666885090181128              1.8375626915579002              2.4317009197643693
H              1.8953429314074406              2.054492781368579              3.158859771880992
H              2.0816977932119416              4.1230353996661435              0.6415311528851149
H              1.3722298506197947              4.147979532474228              0.847142055999269
H              1.7689591181226367              1.3194910396957065              -0.5562735840133666
H              1.3665318510658504              1.4102543693300633              0.05419358115671216
H              -1.7234357404954432              -0.41945199584521425              -2.25981738405438
H              -1.0069152586459922              -0.6478393830264405              -2.27136115446969
H              3.836605240525961              1.7419047469286169              0.828345644384741
H              4.207116420645003              2.4451361702046155              1.118269499235255
H              3.6554850318244947              3.9909871420149643              2.865963148722294
H              4.0155833809410915              4.601804211958537              2.4977150092164657
H              1.5119716403162915              1.8708622558917332              2.5338002341232153
H              2.131862070775425              1.9289360188569804              2.9513219553878574
H              1.6617293631027663              3.7129168452651378              0.4591803754445535
H              1.6436558284070386              4.01911199244895              1.1554327104174285
H              1.598216105722919              1.4805236975250247              -0.3789000766002303
H              1.5577871098411125              1.144120818662119              0.32120775829064024
H              -1.5878643117177411              -0.276530525039226              -2.2158357282046337
H              -0.9710304331422719              -0.4642486545733188              -2.003062022741458
H              4.070656916458409              1.7682831734419158              0.5403344714372356
H              4.332452571325829              2.464154146518222              0.6016910589693742
H              3.7748513032909883              4.145951681932319              2.9154484169279353
H              4.219678166122108              4.489821859200011              2.4265637066505783
H              1.9932063902515829              1.9776314111340374              2.217922712748338
H              2.014365642921897              1.762727221058631              3.004083365673048
H              1.7843540732620733              3.807542339469443              0.4419571786426322
H              1.755194635939926              4.457876751345831              0.8284917248279737
H              1.8920867382412412              1.1589482218673166              -0.08125294930375947
H              1.2670418298160588              1.1108010345449784              0.22196330155009766
H              -1.4965398391312266              -0.3164268748902939              -2.400587972260158
H              -0.9151608137910585              -0.5558803398951763              -1.9186576941753126
H              4.0750789890924874              1.8482387369909057              0.36212152108550005
H              4.496062659216139              2.145604123431179              0.9428670819836088
H              3.8541090551953427              4.003132786446335              3.3868063800418553
H              3.7214840171661683              4.309035577948245              2.72784655924983
H              1.9683273811443658              2.3919102461881723              2.3226580293848187
H              1.9005453987595422              1.7793346474578415              2.5877401711119914
H              1.9764710187579717              3.8660699640925094              0.08111575653265567
H              1.7120351879019948              3.932903130812609              0.703911897904475
H              1.6566983855602766              1.3858521681227456              -0.33917498037797195
H              1.5961403854313492              1.0765989923279458              0.30808951094535075
H              -1.3526410295188915              -0.6865063219644759              -2.4066177042418664
H              -0.6403410499159055              -0.5249989606387663              -1.9733709288478969
H              4.354425176778128              1.6528202585649914              0.7891691315001017
H              4.855673581713444              2.2155412240789754              0.6376369458654325
H              3.7251396797710914              4.094709634590408              3.184147164761658
H              3.983813479107256              4.507268048440808              2.627299554467997
H              1.5611780358635772              2.0417164278517625              2.567528339433303
H              2.0683523103311328              1.9197808814325277              3.0552223624292245
H              1.9886925197690086              3.778645737581111              0.09502978126900005
H              1.6883883854766317              3.9778362521927373              0.7635240566464486
