72

H              2.343592754863061              1.6757543358555254              0.93918912572328
H              1.657689242447104              1.5766689700820422              1.2525711385596172
H              -0.0191561462058435              -1.0933444861144797              -1.9334109017665175
H              -0.7449900712318022              -1.1264492431787798              -1.7642373076729059
H              4.792758935458615              1.8725967974548012              1.0954957817544668
H              5.048449110283038              2.568786521759402              1.0034800815307736
H              4.139672325643779              4.878219968272926              2.6078422857728403
H              4.091140179584356              4.661276956705259              3.288911799706896
H              2.324070965660309              2.205482928339341              3.8161711478514784
H              2.880447650023238              1.9426991166326313              3.4222222146996244
H              2.8314929901576726              4.291558049931162              0.30371983654763046
H              2.973029094061887              3.619547937637062              0.5250059128445779
H              2.2761585900104997              1.9183871677534452              1.335336767325519
H              1.7576653048983981              2.0765328171207047              0.7968755520065749
H              0.12075758009689319              -0.9864649954525113              -1.8042640340327847
H              -0.6678758271716964              -0.9419439604514169              -1.7297999711789847
H              4.549650099576289              2.0730555001182847              1.1981623164174615
H              5.004755818954547              2.665682798212528              1.3453404048445308
H              4.079810327203957              4.920771344724318              2.4122849696839075
H              4.445593818550133              4.849006932619269              3.080547939602447
H              2.5427133825488584              2.344858197252303              3.6029125598997633
H              3.212911819620893              2.2169441345517225              3.3331658968434277
H              2.9539763201689504              4.460024975958571              0.5668294106467299
H              2.944446945688822              3.707435048521796              0.6156827680741864
H              2.34411104508922              1.5703216578354555              1.1059283029607954
H              1.8030145268162512              1.9596846646189494              0.8003369313174024
H              -0.015563762807653028              -0.9814506054048167              -1.9226768756894068
H              -0.5889252992053667              -1.2717820493633047              -1.7536608952825412
H              4.602756122198896              2.038399348620231              0.984660301147299
H              4.792368222077701              2.6670091777009555              1.1891309035654667
H              3.805683923814885              4.940453450714705              2.4996872095367895
H              4.272814927957887              4.707498254733595              3.0303757506538798
H              2.845355172023362              2.5086000439592375              3.6060690659572825
H              3.0570533591562166              1.8378066487468185              3.1400842001396723
H              2.9957657965148763              4.371805588170309              0.11879092476566457
H              2.7681320983015785              3.8588802848733454              0.5746865944605407
H              2.318048360124488              1.6422366968524067              1.0103130418583768
H              1.89442925311205              2.1525280423586213              0.6911515880787454
H              0.1408239733148411              -1.2574602873811072              -1.9720700557822475
H              -0.44670516187735887              -1.5903827132525472              -2.0766032110882975
H              5.054300071087315              1.961318834725443              1.3743429052129652
H              5.279636996828714              2.7799821582919373              1.380766734748764
H              4.040923502863218              4.99207218578505              2.4904227351548895
H              4.184083245643408              4.423055170207772              3.0189339423331614
H              2.400675554052968              2.3299125111789274              3.7431293787726725
H              2.8800344645906835              1.685891610913274              3.4395424333492146
H              2.789930149468233              4.400349731996454              0.18896882449213664
H              2.9592244846118057              3.7862707811784824              0.4487313402969505
H              2.160178146726859              1.2131135656254204              1.157159574745761
H              2.092020731578615              1.931684627666613              0.8352146116310248
H              0.0951340315821093              -1.2081644436593129              -1.7240497156045396
H              -0.6023437992012677              -1.5496183435314483              -2.019532897010064
H              5.097654137229789              2.1981301516648513              1.1642361267383896
H              5.070540336065139              2.920759268125758              1.3456476922097411
H              4.404681191482894              4.601201043294461              2.477614730652501
H              4.410838308705348              4.701375401192961              3.2660541083796564
H              2.2745069023854874              2.465379669246912              3.550008956724374
H              2.944319934793353              2.134037254323115              3.776538416126007
H              2.6919021037993973              4.476717538531478              0.27129269145815565
H              2.7893133322328008              3.7227120487030287              0.2594766927324402
H              2.3075637920920085              1.6108083921357732              1.031888154126722
H              1.6803630672550176              1.694117328416206              1.3208339341710627
H              -0.16714495194169698              -1.304781293908221              -1.882486907768654
H              -1.0010938261438798              -1.1431647497447632              -1.8742548069381528
H              4.720029182060158              2.410035255373106              0.6442504047401757
H              5.180369397248805              2.5546106628666823              1.2284451093492736
H              4.2226144771553145              4.846223025956718              2.536847047732594
H              4.362168800387287              4.842482781671188              3.2286579476414836
H              2.394296896997474              1.7451924826255114              3.8365463273974587
H              2.9804000043812575              2.1574744152171696              3.483362057596575
H              2.699053052890256              4.468422044452048              0.28437267742775524
H              2.833907601084113              3.76775804212984              0.6225766193461355
