72

H              2.553376734141516              1.6601465703444105              0.9693922245666848
H              1.8912037489242266              1.5962459496725172              0.5868796570099568
H              1.059037222737765              -1.0121876990051857              -1.9183742377042488
H              0.448215035149063              -0.6793372259040531              -1.6785803998257924
H              4.841433244642017              2.6624482266307523              0.7759527734455768
H              4.71429957943235              2.1589492481859933              1.3551944277465513
H              3.8024674664730616              4.628593208699842              2.978329085785836
H              4.501682933374503              4.772833282735642              2.9294967173854864
H              3.3754023897648278              2.0916825996039994              3.3922811224608767
H              2.7548307770349423              2.223843894034739              3.8449084073791617
H              3.0562867751917926              3.842370796593798              0.6740978455759846
H              2.778481213563896              4.290698087899723              0.11915467309222325
H              2.455177198372022              1.3718255970430238              0.8843325606304988
H              2.004547869195902              1.8337201459751618              0.6214270517616659
H              0.7204955150528884              -1.2835068699584122              -1.9609432392082677
H              0.3683809300704477              -0.6556642984582909              -1.85460254684624
H              4.564592528494904              2.6781936430031945              1.0351263241561248
H              4.9213667657148745              2.0522842357089313              1.1849405723122277
H              3.6658948271434406              4.540246564610162              2.9688706609199955
H              4.365624574578607              4.507734467998631              3.019482497105793
H              2.9580517961673474              1.645724589107599              3.5077585065360686
H              2.893006665564876              2.074975992524027              4.210364653699477
H              3.016424301714012              3.8648827113248805              0.8439951468092904
H              2.700809569760988              3.9842024448697226              0.11341950432516293
H              2.7098467922065783              1.265429256406783              0.9053664176924375
H              2.0323372490781626              1.552078729030775              1.0051092648190425
H              0.8926642412472425              -1.0941564807524715              -1.804549076231101
H              0.3339173838173873              -0.5986679842249263              -1.7302230769175058
H              4.5852437317994355              2.4325439651315963              0.9336869261277614
H              4.843698539380975              2.1124007792007364              1.4865073125667498
H              3.8902858615382616              4.119199975835491              2.9915014009735628
H              4.448769983838791              4.676367263994436              3.03397889549136
H              2.8992748956636256              1.8404327294749203              3.3631779021673576
H              2.8819428653862467              2.2433129331876946              4.037021496136018
H              2.6661154497529846              3.9744596318157277              0.7650127217264667
H              2.8973726209625705              4.003542065555938              0.0364658156325726
H              2.294879922946501              1.7384216547555822              1.4164580242466238
H              1.8667838235917171              1.453442678970327              0.826054089769854
H              0.5532017450192036              -0.9162828701753253              -1.6455361246994509
H              0.2845410690654441              -0.22596230978921433              -1.5970215213420915
H              4.594273814490331              2.4553983493179925              0.8966046820280775
H              4.848012280547295              1.7625777087527692              0.9903832347870765
H              3.921527894968938              4.325836192207604              3.0496680243646397
H              4.3751921670122575              4.879256138581127              2.969809401737829
H              3.3830129477488535              2.2617749043998465              3.1092014480778847
H              3.070536470842245              1.967655028688148              3.765294977654815
H              2.382329244789332              4.101228063237972              0.5288545738737196
H              3.0255594232683185              4.398597720487903              0.36902613586026534
H              2.4238919259265392              1.4948469640428093              1.0563556452336047
H              1.8614926326622219              1.82213149101018              0.7480537408034704
H              0.6814848515992745              -0.9461633133460639              -1.9820186428862103
H              0.37573058439755175              -0.3455017023891302              -1.5255368787291246
H              4.349276429378343              2.1392044106457853              0.7313635376784566
H              4.704079274215229              1.7704686724957261              1.2921115285905496
H              3.5138703770769855              4.655508642883106              3.01589735092537
H              4.232435388854769              4.7099264960118195              3.1074396346879425
H              3.4521654323682087              2.1111058568708385              3.3126724810868273
H              2.846459414020673              1.822087623216383              3.6549397620625146
H              2.6592486612670214              4.105594605196897              0.508446385878167
H              3.021112985604454              4.335230967787396              -0.10018897340104647
H              2.461826553001181              1.6884768070208185              0.9509637025955241
H              1.7435873428812667              1.6308646479310915              0.6625374295569256
H              1.0810622619082846              -0.9644385672763812              -2.0130095521788536
H              0.559920088396355              -0.5244671295087114              -1.7579361931663764
H              4.843447678921382              2.33095663427504              1.074558441447392
H              4.9040556301175915              1.889256490304596              1.7662255734387935
H              3.7514550512485174              5.001068854314113              2.88383589544543
H              4.4137294341822795              4.693247941707922              2.977680015382289
H              3.0628648977635993              1.7671618721459572              3.1902749711579217
H              2.9755635536284832              2.1095422756967115              3.893168996703322
H              2.986048016270022              3.934748748754617              0.5851429227004138
H              2.9175514711400377              4.483219970695857              0.07871902698754
