72

H              1.2697042497755704              0.857107091995922              -0.18521445280551174
H              0.6467230887738613              1.2209446261333665              0.08313325383281558
H              -0.9547871781436555              -2.286928125563802              -1.9137881859632146
H              -1.3911162781260593              -2.7151984143788512              -2.366804021948923
H              3.9713680656281913              1.4823015560348325              1.5390627199539793
H              4.306153710496078              1.623109844780493              0.9025562537469264
H              4.261339816856564              3.5669738817525305              3.452157617108172
H              4.288071746673537              3.8185287985886367              2.772696106063617
H              1.6509415698495604              2.428714865053737              2.6386495773070906
H              0.9277592724479685              2.3870462103091334              2.434371850904918
H              3.0911998747198433              3.6737115521232924              0.32949795178836583
H              2.3589077485737437              3.5694163409227464              0.13794732352230268
H              1.1483926630876014              0.6852785312720567              0.05104839736090188
H              0.7079903398302251              1.2340106213036863              -0.3332907945244653
H              -0.7632363324984578              -2.673358897481771              -1.9219992002498245
H              -1.475056387247004              -2.6483623185462597              -2.3484770078424786
H              4.18950587752863              1.5088029553978481              1.7275135388252396
H              4.581142125356573              1.7644231909872714              1.1325882343235882
H              4.120363662541019              3.5514650460709936              3.442827079047858
H              4.271149871320567              3.693721149826098              2.748738761859421
H              1.6659848845479932              2.1567885313547293              2.3268054007272077
H              0.8931905089844756              2.358783737330094              2.1910683224416445
H              3.184979015950402              3.688097876142916              0.04636416964053452
H              2.74167953448962              3.5466259716838775              0.5770651670722134
H              0.7428347966816211              0.9513099869319597              -0.5407143196185794
H              1.0869743276456043              1.084701510112291              0.05937972380291131
H              -0.7629851249567988              -2.5920804842471075              -2.0622297655918818
H              -1.377454776677686              -2.8705057859521785              -2.3560340221748786
H              3.754811404438521              1.46657533551418              1.5791756731377387
H              4.3825029395493855              1.3417041413695456              1.1907608515889452
H              4.001237467806677              3.3300882717670146              3.4138639684324614
H              4.012511709119313              3.769077060699233              2.862218393634641
H              1.4706321037685897              2.0844002784774593              2.4664797295797665
H              0.952412934238922              2.375775956108938              2.04262372668787
H              2.94115211005782              3.3981577508806144              -0.025156430534010496
H              2.5742430700538743              3.5068137249535583              0.6073553193725713
H              0.7722007873148617              0.5980846285973577              -0.16289847127862767
H              1.4226804572136609              0.9311148947171889              -0.026033416407844123
H              -0.9793104989690465              -2.6976482422848855              -1.9760000580126686
H              -1.5101075583164196              -3.0340154231469123              -2.3343615442349432
H              3.6924220814030373              1.4567159934177043              1.5584262948696828
H              4.3154976315283955              1.2605130653895944              1.3816970366394217
H              3.9367644325008433              3.854268090993028              3.2724978956607726
H              4.382323020216077              3.6488798995273055              2.779162470877274
H              1.2819809601294594              2.0750939035340608              1.9991775761421287
H              1.2201682156331843              2.223744568650459              2.667137127436241
H              2.94492671236689              3.4486806640103627              0.2456795351447378
H              2.26060246468457              3.749467333720843              0.48113310929682823
H              0.8848097345517181              0.5668465801994566              -0.48273565786434697
H              0.931300417942312              1.0268200727340318              0.18209880125518957
H              -1.3603937583634673              -2.6851388875038906              -2.1769767304590286
H              -1.765971323519544              -3.1772757609346063              -2.503017016005045
H              3.9671434061176325              1.2181423915861336              1.5434015447569158
H              4.612800051178394              1.444417747856994              1.4047722256687007
H              3.7364134423794053              3.739895476642451              3.4738268944200605
H              4.123132913274526              3.994254371273235              2.870605988707046
H              1.290643197479706              1.9155886771617077              2.3247303181841827
H              0.9466806240968859              2.5081286067056965              2.6303042054937626
H              2.7234769592179178              3.785479663297353              -0.05925975745627156
H              2.194732502979907              3.496154483216005              0.35480963976328217
H              1.3044729220206979              0.6217767725275305              -0.3927121214118847
H              0.8928363990637547              0.9307129147398848              0.10117504613130579
H              -1.1187019275317058              -2.5388262717061254              -2.3797546027515946
H              -1.5648546264973464              -3.006915434175225              -2.37215246961863
H              4.1117454233526765              1.4307052162642593              1.5451721492309094
H              4.622292021389107              1.3945157073919028              1.0025230258513098
H              3.8773643951735206              3.643826096601527              3.373005062582273
H              4.07212392525056              4.052577330065203              2.7808657669950465
H              1.7485200047096674              2.3376965775985576              2.231743577518071
H              1.156346552741891              2.616775140362354              2.364913023872166
H              2.689261923217581              4.202653708351809              0.17894749035827046
H              2.275705647581188              3.5595397764404875              0.32064753999423207
