72

H              2.239168666459432              1.2528046556899668              1.0630318851097824
H              1.5801557809000246              1.4791157794162195              0.761898603459815
H              0.2732721158559822              -1.1608460812774508              -1.863911824332141
H              -0.4245431364577403              -1.0944060087702105              -1.5928088998730994
H              4.882018116905786              2.006184156111935              0.8712127811228654
H              4.775943261105797              2.5685199644844086              1.3769844817167385
H              3.9784659736641              4.652466383717097              2.5324999534609125
H              3.9790776526995715              4.829800843482878              3.233516894041911
H              2.7153692193748933              2.6186937038588143              3.898787317144575
H              2.463551877841769              2.0187984259500324              4.001825629522564
H              2.871734119098904              4.281564147019236              0.31836238414883494
H              3.423833976102287              3.8529418754542957              0.39338913795594044
H              2.2450592179347657              1.2914713734848298              1.2759021305322444
H              1.7908983680724018              1.4475367434603896              0.6631601011067225
H              0.3470924290982763              -1.1576181701904116              -2.0683025802165194
H              -0.2869778523392259              -0.9870438844060483              -1.6841501362339344
H              4.840488488401805              2.3472914964648823              0.6718393774299178
H              5.219746652326912              2.4493652647444066              1.30694388376765
H              3.7932266459490593              4.688017275637952              2.3607266572466274
H              4.038833051023176              4.92344368446591              3.0391978349617412
H              2.249408655789606              2.3965488428751938              3.636132800680391
H              2.9265257354791516              2.4705755307365367              3.9623653523656226
H              2.6692899910813344              4.3836493934919645              0.7071280781002981
H              3.0670591395837903              3.7769726849168053              0.5433420694511011
H              2.373578626064744              1.4507697335165797              0.7027594024881222
H              1.748672685390223              1.3071678238428557              1.0938595021887052
H              0.431417749983466              -1.0163662333946808              -2.0071848402594936
H              -0.2056197536126396              -1.0391180874835015              -1.7196147804760331
H              4.6218256746936985              2.246448230461378              0.5244296043963784
H              5.053491048388131              2.396992862079603              1.0924522500812186
H              3.4627564042133123              4.45297678285518              2.545778381165063
H              4.019877719521947              4.690689060177359              2.9499545037702064
H              2.5159192691556904              2.767339357285657              3.5492641960138234
H              3.0911992873066385              2.4309403654571913              4.00079300702502
H              2.450175258684931              4.368191201041552              0.4704072840012561
H              2.901595825828373              3.7965543696497472              0.3405335142281259
H              2.205263103829062              1.7696562138857057              0.9860249515440156
H              1.7811864945780858              1.1881091170886602              0.8770679124682942
H              0.4462609325816443              -1.120207393375534              -2.1908367528846586
H              -0.017624644940267754              -0.8003972295461872              -1.897149519981992
H              4.726024861507061              2.187721872560434              0.8331105734297034
H              5.005693154706241              2.1947270809292703              1.4508816271462794
H              3.547409689714402              4.578894572173906              2.41978626476355
H              4.056962766382472              4.598879191514617              2.9815560347704273
H              2.793827934366423              2.3200518977870286              3.5495749407056723
H              3.188855461903029              1.8457273536164467              4.01800984030489
H              2.460410583550493              4.375079227643646              0.45842735571492055
H              3.046138434767887              4.059241093762219              0.1372791181514544
H              2.1853532253401213              1.2117063136713953              1.2604712642605007
H              1.5100311085025984              1.4976161264460501              0.916965670257347
H              0.7537864307095593              -1.127504896734934              -2.004424853472244
H              0.2447607438742078              -0.6519196687856464              -1.5517038250741793
H              4.895712242957076              2.10631919120361              0.6328792136575154
H              4.935296198738016              2.133782836321296              1.390584358241338
H              3.6709963875274676              4.382763926683489              2.8248832963102632
H              4.3600049127947385              4.627901277791392              3.0395466533110596
H              3.043797933607015              2.268899187307192              3.273109801755618
H              2.9513041965274707              1.92323289708952              3.9585981043291207
H              2.8597140373530414              4.719381170736082              0.45045449684011085
H              2.856365872588287              4.039193151971204              0.10452515212405913
H              1.9164690344516293              1.5610521950425071              1.1838933539843008
H              1.3950706159481367              1.9697326371952693              0.9408700970118151
H              0.5355888901761429              -1.273153821813738              -1.599014765586371
H              -0.0859891766727499              -0.7729286752194116              -1.5100529110815166
H              4.777092462261481              2.245104130806004              0.6541257744513335
H              5.112957857612947              2.1139449087822926              1.299236380897907
H              3.815277685079519              4.512689803839168              2.856511371317554
H              4.419898963897414              4.7435626832337565              3.0665982495472113
H              2.7731088091564007              2.5312197987323324              3.654011759087163
H              2.9446034346040335              1.8496776703687787              4.014532975913063
H              2.9609366938736543              4.714685705227524              0.5270268211297372
H              3.2639823839054936              3.982225668240425              0.41328465837171935
