72

H              1.052133172669738              0.7184668459796103              -0.48415780756395554
H              1.4798553594497517              0.9483435416251372              0.09716440040975362
H              -1.1003290559197167              -2.1057127997283773              -2.0751247928113172
H              -1.7438921200042363              -2.255742925489205              -1.815451046032285
H              3.9785009805594913              0.8627142736741337              1.2642833996989393
H              4.377037129192527              1.472113014443954              1.0393056213810834
H              3.968177742027607              3.76289128788844              2.7404219712638604
H              4.354580329811833              4.197885254827614              3.2006616822359444
H              1.3414241179094257              2.0369440099803326              2.9083161212663113
H              1.5764117153038688              2.316523652734414              2.2784051747723426
H              2.619549531915249              4.289539313345511              0.10087323183629844
H              1.9316500643963852              3.96015302430046              0.23695158289891877
H              0.7183305927336073              0.9174668565699255              -0.3076971578245909
H              1.3615358625801863              0.6819345288197477              -0.053623818273359075
H              -1.0130567479042987              -2.226108686076478              -2.061588291548911
H              -1.8497398907333769              -2.1295365253807166              -1.9396801283430696
H              4.105948102684912              0.8739134000966446              1.2210853852707269
H              4.253447686584696              1.6443714054368155              1.1412759527119807
H              3.789730105884556              3.6765545124638233              2.8656260197079018
H              4.147276992048778              4.306590325219582              3.0685380577110166
H              1.2715771958224529              2.0706389925464994              2.8275694777782006
H              1.789877299482743              2.1930918265280095              2.4408460954482765
H              2.8318771139112684              3.859199025713891              -0.12705077595749684
H              2.1495521253770122              3.740615868978815              -0.018235643101682825
H              0.7957708344694202              0.5841066128322977              -0.3095383584341123
H              1.390200029516227              0.9194689617919876              -0.4376427798105925
H              -1.108607439036924              -2.5136760527922495              -2.3877511051288325
H              -1.6714137867126477              -2.178822899840772              -1.9721113548914684
H              3.6991214955331886              1.157853265020395              1.2952693048745534
H              4.342655209992242              1.3689732683178135              0.9258279012163411
H              3.516105837125443              3.8011217668343997              2.6748375229316443
H              3.9974338262663465              4.051800977229465              3.087697271379463
H              2.0829730834257427              2.0860704579897673              2.636728533609782
H              1.5214382067434447              2.3732105326775517              2.1481330145767124
H              2.75710517080736              3.9289476475334584              -0.18642438016208018
H              2.2450382636322694              3.9387304866073407              0.3621521548955603
H              0.5770511826690989              1.05595653772566              -0.3228147933149528
H              1.2736757714381601              0.9669786655281969              -0.49242195175596293
H              -1.1108297562381382              -2.270048985194893              -2.220757842503858
H              -1.6665011410560246              -2.6152072453035426              -1.9774898581884692
H              3.4369021078045825              0.9445081450312374              1.2998819034802138
H              4.133630954196807              1.3028136034639592              1.3149146508423661
H              3.6205310527930306              3.7538335470712796              2.71836244354294
H              4.053393249600267              4.08916114090753              3.1937190988353397
H              1.831497101118188              2.208726916101085              2.913831576529663
H              1.3950325970446373              2.0957433353330828              2.2848043995822285
H              2.586373490055791              3.717406101200269              0.04031623373296171
H              1.9109590738367415              3.8685500755839777              0.4373638329150183
H              0.701448941333983              1.0753008595484708              -0.24677744806890742
H              1.2145395884701538              0.7877549872611216              -0.6114061102206966
H              -1.3827534371821804              -2.2882048982359153              -2.3299564187456863
H              -1.913115370021811              -2.7456536289749525              -1.9484474566965622
H              3.804980492075028              0.8666611479379568              1.398473605851893
H              4.341799768229906              1.3505794451180073              1.1811804133828672
H              3.5867715885502944              4.163920653452648              2.8576729546916866
H              4.307271640821834              4.274455397236892              2.8934480723482094
H              1.803828350190272              1.9372407279020212              2.835514515879354
H              1.4926750404439353              2.264866652074013              2.2004024448152615
H              2.5569266203686967              4.200537415701885              0.42023375539603197
H              1.856108010229394              3.9985295218499997              0.25287186289391633
H              0.76692725874499              0.9836160230128357              -0.6991733097630619
H              1.331246060208868              1.0053728720737507              -0.275104465289142
H              -1.504714126220127              -2.106067366630695              -2.3845030552226048
H              -1.9858701866571005              -2.48827323716706              -1.9717129632068802
H              3.7258635659684916              0.8015524508709686              1.1306919009548044
H              4.3046262166914495              1.2998639415692252              0.8676919704814224
H              3.6669021494756224              3.9601478334209044              2.840300300598757
H              4.214636987439286              4.23288389141817              3.234781601202867
H              1.5218502522541195              1.9487778073208184              2.8496800809516376
H              1.5444108244151982              2.432283048753783              2.247223180146597
H              2.451290001056434              4.33294825548621              0.08160434826848417
H              1.8211058707553316              3.9546249055133256              0.311343118660522
