72

H              1.9071635913152813              1.3344465791923361              -0.3160564160665115
H              1.3180331123101217              1.117537245941199              0.0830837431500153
H              -1.526321975980772              -0.5619662752421567              -2.4073343421873594
H              -1.0505530317508711              -0.7197422341335364              -1.8220463958953474
H              4.032417086638246              1.599570455218808              0.6133711146776615
H              4.3401200865622025              2.275886938647761              0.6827279390067598
H              3.7020377395565585              4.383538951353124              3.1509852248567487
H              3.891193851564525              4.379279767577993              2.4963531702061785
H              2.0203315854226287              2.1048078181700265              2.704079401460052
H              1.7866899435822563              1.8468110916252256              3.37077698706474
H              2.046699606194503              3.798723456107135              0.4927883854628522
H              1.4377473088482786              4.0986426320011              0.605744218647704
H              1.730339921296709              1.4477814222671554              -0.2599725793491579
H              1.0873124284358042              1.251286126915243              -0.08257373278775913
H              -1.8395357537968355              -0.6528198658090674              -2.499775827754993
H              -1.2650351468244938              -0.9496454445067557              -2.1444709276859006
H              4.023405830481047              1.6995061783137821              0.9442684055490383
H              4.541915440473151              2.2993113578426776              0.9166968840930724
H              3.525657828942825              4.470136448846961              3.0019887825197644
H              3.8962510860565938              4.357465453111693              2.4058628591169002
H              1.6462161608040324              1.8557564603994108              2.385890342631385
H              1.8731096376103884              2.032404683405028              3.1594202209124393
H              2.10493406413449              4.0906372975762              0.6657903013897476
H              1.3711478679448688              4.189560928113015              0.8350345146264555
H              1.7988990862513212              1.3149406030758097              -0.6198262859637236
H              1.305119910482194              1.426067471393856              -0.018951090994272113
H              -1.7882919470464074              -0.4519962854425902              -2.3391269947946682
H              -0.998527795767356              -0.6481178170603586              -2.332070973730986
H              3.833116764916353              1.7596615048674935              0.8167909888357531
H              4.214125327370131              2.422320130720276              1.0599187066460496
H              3.631954801617184              4.08210232291454              2.8912842806425796
H              3.9571475998186436              4.587557344532934              2.494443193012758
H              1.4622115155689395              1.900236367977551              2.5019295594201116
H              2.14059680820284              1.9859865567770696              2.885890217465375
H              1.6417661858654309              3.6887150967225395              0.4453627277724505
H              1.6194729418530118              3.9955045379874985              1.0913825063235427
H              1.6210999490956397              1.462742496232837              -0.41301169424987444
H              1.5472134029329347              1.1702162886974776              0.26079581129304935
H              -1.5964768954671127              -0.2625739619642622              -2.2353310008857825
H              -0.8596492690941017              -0.5227244180812857              -2.0072280458885072
H              4.022177474992458              1.8139422891293095              0.5536404503526808
H              4.270232040613638              2.462367958224046              0.6548797535565642
H              3.849159187311569              4.114055086629986              2.943554077447501
H              4.2394698157930355              4.533645855790266              2.4352064292615325
H              1.9845771834043708              1.9941776574570367              2.238621451812309
H              2.0415425263591724              1.7904935003166405              2.9535546678792453
H              1.7477081188863934              3.8056450736903464              0.44755501544327597
H              1.768042952037996              4.412662299749992              0.835198764127111
H              1.8963269402749898              1.1426290179581873              -0.2063133278905621
H              1.2557332108209471              1.1587857894025806              0.25201586506524887
H              -1.4247810687964995              -0.3438472751044893              -2.3127199029297114
H              -0.9459013833609804              -0.5836489850517481              -1.937010637374279
H              4.216666934094612              1.8349427236684162              0.34672820664266113
H              4.482917884899583              2.2012224637224285              0.9441466832192453
H              3.927724817073399              4.040121530752362              3.384088556896574
H              3.7148180142450395              4.251373341487211              2.694591971828266
H              1.956009631443784              2.432200032511773              2.3796805731034625
H              1.827582861299979              1.7645854488182233              2.57823627340484
H              2.009299590960999              3.8393306711868753              0.061009133118658465
H              1.694713265439249              3.9020586376626616              0.7449780872509834
H              1.6535515072530824              1.4257394975956728              -0.34088206920539815
H              1.6248029751175563              1.0419064483844185              0.23565314793171743
H              -1.3319374346821493              -0.6756173745909607              -2.3861269293390355
H              -0.7563160941787032              -0.5882272015880545              -1.9771599443365309
H              4.32389751169935              1.6343966391194116              0.7615041683541409
H              4.883020536426631              2.191932163093605              0.6094409710193288
H              3.728977199979751              4.061871354339701              3.194440205947289
H              4.000469506044616              4.457363571738914              2.6599103665552786
H              1.5670304625840863              2.0551865256616266              2.5018168254939823
H              2.0326012351285287              1.9216367283548834              3.135601404844906
H              1.9555312433412422              3.77970181201839              0.10108615844387639
H              1.6433973413232221              3.997320368266988              0.7450043306059987
