72

H              0.7475487047899065              0.7365644626005883              -0.5100706001761924
H              1.377551691611971              1.037236698371277              -0.39842835421509826
H              -1.562795165668887              -1.5003523042470912              -2.4440725544147353
H              -1.7253551004407057              -1.6650126803813026              -1.7710034859692712
H              4.130631092489734              1.3085922706284048              0.674274021493558
H              4.080916560098374              1.8219059339333465              1.2570120368701234
H              4.132106132790204              4.192264792128689              2.5425303649198003
H              3.6719014350213035              4.177128199139611              3.171170386192591
H              1.3540420654500271              2.0747857167051134              2.9247680065067634
H              1.347467812470979              2.128610464464702              2.228570061370098
H              2.1822971801383813              4.161114579893809              0.14822318246818234
H              1.8102588971814462              3.973202175065722              0.7278413507051985
H              0.8393228250264696              0.9840559190057067              -0.09043890278691706
H              1.470657376644281              1.0499741139307153              -0.5259327507695392
H              -1.2639409531199586              -1.559550082748367              -2.3753065882876983
H              -1.426862270385391              -1.4947359888372675              -1.6169058409932475
H              3.7675372213851803              1.379418024218558              0.9107282814871032
H              4.199926613407279              1.8919434398944774              0.7852173487839124
H              4.302568765117254              4.332678671232683              2.5222297687953597
H              3.8238674586594477              3.9081074952849226              2.936850301399246
H              1.376803085576731              2.2673115290339125              2.7461931402618593
H              1.9896656628707674              2.0207704577856127              2.4978375886070228
H              2.2537829499147644              3.9435427443499766              0.09600633555525813
H              1.9371320237558955              4.08539344173684              0.7243532494144093
H              1.014944495102337              0.7862757153789043              -0.6142869857830282
H              1.4356257364064375              1.3388173096738547              -0.39963035083880355
H              -1.297140693224702              -1.6249253538599762              -2.284378871529558
H              -1.6624051614289357              -1.695692614895829              -1.5878595660297132
H              3.7808346822085332              1.3371290384380874              0.6802539234308213
H              4.079837360567688              1.9220596875113065              1.0897083890816146
H              3.962877429140694              4.180405097603953              2.403110191279638
H              3.8076909927989195              3.9776775348803795              3.149997502789485
H              1.292350639124421              2.426448192379557              2.6762634895248363
H              1.7461942839244518              1.8244972047417045              2.8747135694552144
H              2.5734943212942385              4.009322034205368              0.38570579049194187
H              1.8661279062537055              3.890457237416012              0.3659459696069679
H              1.0616058851360897              0.6118586736003446              -0.6865087834271579
H              1.4352200485264839              0.9237762056988785              -0.17639467042979617
H              -1.6253345439619662              -1.8497412045428998              -2.5460209706001296
H              -1.666218343410636              -1.98683505818928              -1.8766280650967986
H              3.810079093040581              1.2619777660905045              1.0649583542391707
H              4.433767933530259              1.6183120662269905              1.081458066688724
H              3.7902417385529126              4.5035545771638015              2.499788074890366
H              3.630806314829619              3.937709440428338              2.9705669656961233
H              1.1732950342167556              2.092691608000732              2.6529926876065804
H              1.8220009631868392              2.166514912290953              2.625251103140452
H              2.452595863490943              4.120141896579957              0.5277623860044338
H              1.6884881255189126              4.128257351123467              0.6118592917799152
H              0.7824546597001231              0.7826858183298079              -0.4582835070026507
H              1.3825936065708508              1.0594947961083094              -0.1745659738839024
H              -1.6724665017316627              -1.5049413201162762              -2.4547828210048777
H              -1.6883784802257575              -1.9960382638577794              -1.817893009469254
H              3.32671754272561              1.2213414106272729              1.0605354931786182
H              3.882867436975798              1.7457946572089578              0.9168049779972863
H              3.947211084163207              4.6723362945173585              2.4616711732150245
H              3.7633705607382995              3.957461815542822              2.869605255441255
H              1.5417745490186012              2.098633667695029              3.0014361236230185
H              1.6422627904925948              2.15217367831111              2.304296176100421
H              2.1197826008110168              3.948414709865423              0.4866211466639806
H              1.5088715454319503              4.185425349829586              0.942748822319853
H              1.226990498846686              1.048805764998995              -0.6671755891964568
H              1.2954278453305828              0.617888662158934              -0.13368036712717807
H              -1.7140780907955002              -1.4106400430332375              -2.301405198883079
H              -1.9373474000604283              -1.9968034999124984              -1.856016484642592
H              3.6123304534608205              1.3358437281842837              0.9818458057113763
H              3.980822843854232              1.9206802652057686              1.1021804211076562
H              4.112351485907206              4.619405510888131              2.401375824741945
H              4.007411627325314              4.096787196868605              2.9442979578611146
H              1.4088306094853764              2.1330697354335775              2.8409871737421892
H              1.8636499204672468              2.0603521274679184              2.1341547659207447
H              2.333137862519194              4.122446174785537              0.7265046357236261
H              1.6208582233995543              4.355502725984895              0.8201687937495756
