72

H              1.5598568665326322              1.609964378734021              -0.2567829189198526
H              1.2240822875646191              1.1837274935040543              0.19118798859706257
H              -1.4535775790413112              -0.3765293707497123              -2.46533450791108
H              -0.7147944494830056              -0.6295361248932281              -2.5181390855710615
H              4.527066508125503              1.756919982344487              0.728716293834516
H              4.764765131568676              2.441020439539426              0.7385647542157988
H              3.659790220740332              4.182129683041046              3.1230788574792974
H              3.876263762736558              4.681089032173488              2.6005030783195795
H              1.894843106884886              2.0134290723022956              2.1896856489557575
H              2.1925785459858242              2.1685972832504374              2.9144611549379564
H              2.2351916897520043              3.8165620590018063              0.36132518419057713
H              1.6990028956126138              4.034375363045706              0.7781834412913262
H              1.4843716387736223              1.7617076009382298              -0.34724602131045634
H              1.578114231377334              1.2360264034768809              0.18338797636243992
H              -1.3085152002325482              -0.2835085614289971              -2.147986866684547
H              -0.606558892779988              -0.5008075586168373              -2.1249021856018655
H              4.162973780222975              1.7392476651028144              0.4394654151840892
H              4.370166977933315              2.4386808671957527              0.6457834659498479
H              3.8964211827753465              3.835647341486132              2.9081881552376587
H              4.054437778363659              4.5398466199755605              2.7735070551479084
H              1.9296472164687626              1.7992628425546977              2.6102815341071803
H              2.11410193671745              2.0454464102950376              3.2457416256006764
H              1.9854270433362904              3.8599952661525014              0.33100887289664094
H              1.5764996238583386              3.9667456252729263              0.9675909853761502
H              1.584466611607352              1.5082007450631871              -0.013532023436916398
H              1.4705683763336452              1.0367975226786021              0.5528479076618084
H              -1.54332908609845              -0.189428539314418              -2.0945431143308273
H              -0.96515914962442              -0.6871524007120715              -1.7695662012166584
H              4.144495138953793              1.6990917301002668              0.5782774925648223
H              4.431373538360089              2.312041712685334              0.8434933331412078
H              3.7770526410326193              3.9380119652723917              3.0174277436211776
H              4.173598147248323              4.379417389027648              2.5605601915380083
H              2.147690209495416              1.8328066885848135              2.5409096992791147
H              1.9579296331963811              1.7332848340955138              3.2785877245669486
H              2.1016477296672003              4.056157804753541              0.5014684160292598
H              1.6188239814548313              4.3702676387757595              1.0026226150569075
H              1.7215249648688056              1.4463295043136624              -0.11023839538538453
H              1.2741471717180863              1.1104521804603202              0.4430586464144573
H              -1.789944798247522              -0.4178204807580357              -2.3476195667267863
H              -1.0564935699388662              -0.42787326332376935              -1.9247116339894137
H              4.153665439031548              1.6771084610649292              0.6918937621338606
H              4.610319145809926              2.1892771191240965              0.7707804063145357
H              3.3624083579007342              4.041883738114766              3.0456614393646126
H              3.9048794097810617              4.340258755052546              2.5669623402162394
H              1.7724731502416498              1.9421384778752646              2.4953077567430944
H              1.948628031791609              1.740113281747707              3.0820538325081905
H              2.0272717372008566              3.9270214187299177              0.29310857558747433
H              1.6838955386081897              4.131136125661616              0.9061943699190863
H              1.7564203999946086              1.5465829786136418              -0.0010096656295894052
H              1.2955970513170232              1.045650195796878              0.2968573112940342
H              -1.542655849572261              -0.42476104372762424              -2.442456262910856
H              -0.9563613360892934              -0.2802074332163872              -2.144149532592818
H              3.89621053749534              1.8027995926763523              0.9141855754225658
H              4.462127073211828              2.1503824931866755              0.553394659855642
H              3.3810573684308283              4.1908924968035075              2.8509300095255554
H              4.07799823710693              4.6205869722288195              2.695499886954781
H              1.8894261249034414              1.8778530133771263              2.387415811618647
H              2.299246560675924              1.816158441923583              3.0603121283466805
H              1.9460952774669467              3.830637781027518              0.26554159695573376
H              1.7526481937419125              4.354731485467059              0.8539962926760584
H              1.7605566150634813              1.3772748211698211              -0.06828246787304577
H              1.0901509977587747              1.2819617523341391              0.29784494272858075
H              -1.4209868098439664              -0.3948338584860598              -2.4114894726546634
H              -0.7821906112915094              -0.37531939324354513              -2.176705318321449
H              4.13722810024395              1.7464107719933426              0.6668541228655329
H              4.417011570310737              2.4553842838660906              0.7466891172995417
H              3.5941761008894204              4.40085447785684              3.132407793058607
H              3.8087650629139875              4.579248434783639              2.450335058974404
H              1.8251511841056278              2.1922577984098988              2.424980845321434
H              2.3246942404668776              1.823742071125178              2.8213136432807926
H              2.239475524587809              3.881438632886571              0.27937161973837726
H              1.749257751837254              4.1204170981029              0.7769620615812786
