72

H              1.2827626889297872              0.8742371265277237              -0.25014915689839307
H              0.710642385920658              1.2000147695197403              0.10362720468709975
H              -1.061604010806149              -2.3119284434064578              -1.9313876523837457
H              -1.4527293309092075              -2.6692255724350673              -2.3142890429520855
H              3.943060115590298              1.5090745921394193              1.5476244488912876
H              4.299571747362178              1.5950393179260203              0.860076551813861
H              4.241703900324611              3.606194861803578              3.473245023166426
H              4.343920691609393              3.8670556662108364              2.750143145016577
H              1.6391698988800945              2.3748038530786033              2.69465613505655
H              0.9969349312101702              2.39625643897466              2.357911876033823
H              3.0540289313372937              3.695062001444435              0.3008424060186208
H              2.369740966645425              3.570341892611494              0.09878255940289925
H              1.1329232315209734              0.6615219836925              0.02075015488445897
H              0.7755689337014108              1.162862167002591              -0.27795893947883993
H              -0.8324899849279377              -2.6461798432906267              -1.9724635047502426
H              -1.485980956134118              -2.649640126479576              -2.3229305831164773
H              4.197084903946513              1.5058016202549342              1.6589607138268285
H              4.613415879365673              1.7535983440816187              1.1703657223305584
H              4.054282461449052              3.472601610456145              3.4779659612357117
H              4.227640018698055              3.7557453563980467              2.742104897126774
H              1.5717180003877342              2.155591139032416              2.2986220976812186
H              0.8465767810459391              2.342281066202916              2.2215036609444776
H              3.1616930996451016              3.7031374741120233              -0.023000760385417488
H              2.724565182183802              3.562030532708035              0.5418373632570892
H              0.7575823798859763              0.9541927884719313              -0.5405497139393011
H              1.121026759579607              1.0181708371947082              0.07144410399601243
H              -0.7343270313933371              -2.560853818298371              -2.0703328833679753
H              -1.3632989610770778              -2.903038404025676              -2.3994807464334267
H              3.7843776941745353              1.4602679847013973              1.6469842031492041
H              4.402404772591477              1.3388657658577428              1.2105582537023243
H              3.96255599090379              3.3142389797474223              3.367250172023681
H              3.9945733681297333              3.834875802305948              2.8611032227089424
H              1.506857720812402              2.1240095244593533              2.4661136665768866
H              0.9854654865123711              2.3763264096594985              2.0633775089965383
H              2.9385585137218317              3.2897823289105705              -0.03141935934307032
H              2.5345091972046867              3.50228590559683              0.5696698024773128
H              0.6942561185162041              0.5819824170471622              -0.16039926370539026
H              1.3414608585535297              0.9435611447461083              -0.09550783834259695
H              -0.9703252878312303              -2.7292359511489037              -2.0337879411766826
H              -1.5242933270585635              -2.965106785790486              -2.346379754587799
H              3.638483671080041              1.4885095995611968              1.5822901314801494
H              4.283027724864233              1.3055413115661674              1.2776000328944874
H              3.8917845100974264              3.9367536694801073              3.2570489625792343
H              4.370189012201909              3.6411018889486115              2.7480316828870857
H              1.441437395078846              2.1216390210122538              1.9656749125799844
H              1.2401245439410566              2.219554751058992              2.6769860678977078
H              2.9546084804171664              3.4541033211849648              0.20320615577593423
H              2.2962163033928              3.7139451720922785              0.5097576603295829
H              0.8773756992551169              0.578319987244202              -0.40455540582150973
H              0.8681408473583488              1.0688450183928044              0.1434403926110154
H              -1.2921084728988592              -2.6750749916719334              -2.167116679037493
H              -1.791224886940073              -3.200679202315681              -2.5093365498275015
H              3.8994950598004325              1.2084772092790759              1.515454602565728
H              4.653561848759391              1.377230971981896              1.4051030864462837
H              3.7329352053282534              3.7014777094694473              3.508861865548223
H              4.177582194557564              3.985083159200826              2.8884429567350653
H              1.3177576989469435              1.8789360508610629              2.29380372795194
H              0.894566852875452              2.5383810975670786              2.628107756466186
H              2.73667067061877              3.8283063487211266              -0.027796957698878664
H              2.1845496577016505              3.541424167015153              0.394944533551791
H              1.3493640344744107              0.6420073582002974              -0.41990471952058867
H              0.9677191961916146              0.8906166577280522              0.15893868799034938
H              -1.0182418737157761              -2.491064389081082              -2.2723397035298056
H              -1.6130798607909869              -3.04568972561369              -2.3148315106570307
H              4.166034586871642              1.2976384880138332              1.5501912153745319
H              4.621297304799844              1.417971455409282              1.0652696067347995
H              3.947998979413099              3.6441703104473073              3.385531716781384
H              4.09982495690085              4.034518306637334              2.789854237272038
H              1.7166795698404578              2.303300596973409              2.30386707037033
H              1.0695966733039317              2.6295996891998414              2.3345023277726664
H              2.62952313602712              4.224213450905086              0.2460600323011222
H              2.2427312859612485              3.5615267968300537              0.29388358792092983
