72

H              0.8338731388538492              0.8742342760615542              -0.40587713541886705
H              1.4959592675104567              0.7500040248934784              -0.5456342410760768
H              -1.2153099788753228              -1.684410083338948              -2.469390869529817
H              -1.4606008808957671              -2.123992324939319              -1.8198107216200643
H              3.592992891274104              1.2768354551362662              1.0760070592610564
H              4.104687541431907              1.7658483953905963              0.7575719841248348
H              3.969459013124387              4.3519757176724285              2.2790790676952835
H              4.048609536784422              4.142321307856149              3.077263687220086
H              1.6473587021529101              2.212335815614146              3.078685953271484
H              1.8593899965266054              2.056176468987435              2.3836749883655806
H              2.510036013542341              4.020685718760582              0.2903198950243399
H              1.9310259804301766              4.311299376983584              0.6936032124401609
H              0.8347030462210964              0.6945253194443147              -0.6075874248643997
H              1.5051682724006772              0.8450709279502001              -0.42253813331130563
H              -1.4257876608270352              -1.7430301474643843              -2.2359691888279967
H              -1.6722010840769175              -2.1913943341035065              -1.7812768148102418
H              3.813436420858659              1.1988076793469924              0.8945368612309796
H              3.98106515489444              1.8054757866539792              1.2380190106182112
H              3.8356160199768987              3.9328816144339136              2.4795509175399717
H              4.057474257405954              4.164267091806121              3.1682769954666097
H              1.331142312209854              2.160393631645022              3.0216583076015207
H              1.6533366811553025              1.9369940174462104              2.3653757612136035
H              2.633767957434287              4.294271961916811              0.5144104321944668
H              1.9166540281237876              4.015627875661759              0.6879268360422967
H              0.8564070720417092              0.7704472660371595              -0.2858476783135165
H              1.5599800387816285              0.9747260166142714              -0.21728946315004377
H              -1.4939773184487217              -1.8589989561088591              -2.25784528934196
H              -1.6852989433060286              -2.017443053872028              -1.6048566101748034
H              3.5235210814120164              1.2008165991443303              1.204046602222496
H              4.151720931138759              1.6261557644084115              1.0186280025537187
H              3.9621479860053763              4.174461190805885              2.355317544247294
H              4.019053274163511              3.8323170350776707              3.1025607764059893
H              1.4723360423922107              1.9872470575292402              2.6886863528139493
H              1.91848911116808              2.1893532010644776              2.1597018278290716
H              2.41298832483065              4.432472282311619              0.6098963015832308
H              1.7736735296689896              4.041741092264717              0.7970311020237608
H              0.799333518594362              1.1888945416734786              -0.3695659979848092
H              1.556901217658797              1.2872953359388073              -0.3079725645640576
H              -1.4665390834805974              -1.690505418815951              -2.086607943146948
H              -2.0157135780275124              -1.8692172277877708              -1.5673013451104916
H              3.33720402034711              1.1976447787607267              1.0051742473989205
H              3.8238533305000417              1.6868504567676204              1.137373427189989
H              3.9538099976487424              4.219062715624507              2.4063234036271948
H              4.032644426687859              3.8975386441230566              3.095281578801079
H              1.3592235971425473              2.153022873331816              2.736065844889057
H              2.079326747400496              2.0470949078226304              2.3047806010199765
H              2.4152602213045027              3.9856158952991203              0.46338813444403654
H              1.6768836060158012              3.9526313488745486              0.5200392307024446
H              0.9021652208170381              1.105293310693529              -0.6779535995181101
H              1.6097178513206205              0.9181313725302234              -0.45688361154056345
H              -1.5821147903185193              -1.9871941646121698              -2.419395283576613
H              -2.0391254991512042              -1.8914997120497699              -1.8779402400761271
H              3.939534297783765              1.059341138524218              0.9770281501385457
H              4.390861480144934              1.6541797160130693              1.2210688950228348
H              3.716995371668744              4.433349297942465              2.434348098212585
H              3.7732113265542915              4.1178807503048755              3.1087562337478256
H              1.2875107993247483              1.9088698259807764              2.6678437167979103
H              1.8510562997974604              2.2515093460769764              2.355873638070606
H              2.5373712706389773              4.076954418562908              0.20569277101613298
H              1.8335466664326348              4.0977207420813295              0.290255168519683
H              0.7382293286494306              0.7542162764728653              -0.3915940029625592
H              1.3228964045257892              1.050884761786754              -0.7285254662001504
H              -1.402937202479647              -1.8283976673508595              -2.708600569614396
H              -1.6210708197402026              -1.9265444676440986              -1.9960736919147595
H              3.8848834537226833              0.9732092455388228              0.9055750289579769
H              4.217201886064427              1.5731271611423063              0.9122746934630519
H              3.778498278191927              4.301858000859305              2.4737350146649395
H              3.487456963221395              4.2707840931208825              3.1896678170800636
H              1.520363529333982              2.0733089143343637              3.036541523745016
H              1.5586491755902452              2.2404379960894936              2.4038887196794656
H              2.215213481097325              3.9188792005337385              -0.20921539291276356
H              1.9457623300640945              4.002022974244632              0.4559117358029698
