72

H              2.3794495629503305              1.7351027393319145              1.067262494059608
H              1.7499737960564572              1.566143058298949              0.6836585011044545
H              0.9271992355609298              -0.7015707140520333              -1.7893266947779929
H              0.7491835041040248              0.10236993005767757              -1.8276699545246022
H              5.1724914815721545              2.4877247840335026              1.12573941448504
H              4.849445944139993              1.8993776812368237              0.846694484084022
H              4.003600816608033              4.442322986377978              3.2618725573358764
H              4.317242421561409              4.473845464562657              2.5457582061819015
H              3.6390288171309635              1.304965806325422              3.4388636408958364
H              3.0812255699667115              1.9131225163594716              3.4064430325482355
H              2.46482671166136              3.9386686486738482              0.5776347138088858
H              2.752868387242765              4.603318625432923              0.4263579647120625
H              2.040669036038366              1.5357702090885923              0.9554869181736872
H              1.5137478936886253              2.0535697078962647              0.7059701456364251
H              0.7278051052122466              -0.6815503083219675              -1.7172297824830758
H              0.84618763904099              -0.05732091773181223              -1.8576564867480454
H              5.045740353663858              2.502144073425025              1.3050293341599999
H              4.8870570074949775              1.7963764764291508              1.280872287309875
H              3.953342005513721              4.7930349682078885              3.234899956584204
H              4.393647445105897              4.331225968911506              2.8188124028583363
H              3.6708088439988598              1.1243313546361084              3.6371733246409454
H              3.198151812207874              1.6656349906406245              3.4162795541351447
H              2.908241603060576              3.977121664237573              0.5075109392982482
H              2.95056897348011              4.637147069861563              0.28263382128678044
H              2.2422640004736505              1.1950877171448075              0.9070461082450276
H              1.703241370898665              1.7214897969659448              0.9145601410338121
H              0.9550386999266404              -0.828275713441949              -1.8257707713987466
H              0.6266140372977919              -0.09429050904517329              -1.7668426151935492
H              5.142842699257353              2.5396443534700124              1.2206215445100572
H              4.820564456310617              1.9657957199305633              1.7036553739153606
H              4.0464512822466485              4.925373683313386              3.1822456614158194
H              4.485497653638259              4.4238798375666475              2.980590173369869
H              3.413926550632587              1.193151247052256              3.4911393086207045
H              2.930546591489982              1.744952316409487              3.298160627127184
H              3.322851887803071              3.905986530412648              0.43394194747920295
H              2.993162261637473              4.523346863868885              0.32872006487360445
H              2.1065188486895523              1.5428507416741986              1.2899313947643232
H              1.7577203947530273              1.6573306569621737              0.7235312408484118
H              0.8592663614374502              -0.9151675145614753              -1.6356036985205025
H              0.39147287227727284              -0.24534670223679172              -1.7890035339368493
H              5.377417478521171              2.6454181336360527              1.2012560388699933
H              5.279975475123381              1.8791499848982953              1.1584569188870901
H              4.016527117726625              4.888118382954764              3.2213615709533645
H              4.540765306669025              4.642549260629801              2.78864424752018
H              3.23591891432815              1.4731432053508717              3.151491614135291
H              2.968914874996801              2.039913522461991              3.5370012164231013
H              3.2045492353226885              4.042635484801103              0.716163969426977
H              2.8585639490634507              4.692166378146669              0.523899930032979
H              2.5340153283445237              1.298973644594866              0.7039583837127513
H              1.9949649679131514              1.8120909277408628              0.9074553014109541
H              0.6368602427725657              -0.9396326136178558              -1.9285124953753556
H              0.14958215911851205              -0.43967530533504084              -1.8875552243541724
H              5.045932093890848              2.5570861069513127              1.0946962937656624
H              5.100366968360324              1.864336664793061              1.3778319957265364
H              3.7024599726606287              4.70937483638164              3.131197943157713
H              4.412280021962436              4.603872662873444              2.9967508538413092
H              3.2358181127192656              1.5711407718071928              3.2770205305939077
H              2.912198812791085              2.1956865183984897              3.3293709033611223
H              3.007573382394975              4.06263464991203              0.6131018277688316
H              2.614067863576767              4.338342222353155              0.08379359696168286
H              2.6596128151888907              1.5070351473239845              0.8893531250601252
H              1.9642902706023568              1.6454335567445348              0.754386385579658
H              0.6522615167011137              -0.8581553012876244              -2.1373216554254504
H              0.38465406337911606              -0.221524386283539              -2.1157835998523207
H              5.14118433392876              2.6028914061339172              1.311716099403411
H              5.1629439554022              1.9094527068040583              1.4122498446226668
H              3.7654366400659884              4.668324010744037              2.9562011125544125
H              4.48263219037918              4.628036437270356              2.755667182979271
H              3.074912657998468              1.2785764008182767              3.0702225659250324
H              3.2294278305974213              1.767805241834128              3.56562481271003
H              2.629863925148872              4.009479781805709              0.8000330899279786
H              2.612525829896957              4.436982004377942              0.17578446848783785
