72

H              1.5361307585355057              1.7053290628094728              -0.22987395692730486
H              1.2365315437436548              1.167010602864393              0.3012655165647171
H              -1.3343462620769735              -0.3398349432681145              -2.382014347939949
H              -0.653981719095348              -0.5253056864717723              -2.557083635291385
H              4.369255020342418              1.820029812637758              0.7649477919478948
H              4.754420177909706              2.4598286366933046              0.81134106841224
H              3.6829665470885424              4.042498728180534              2.972987027227605
H              3.945776526641966              4.701282286650924              2.740615814234859
H              1.8143278583305609              1.9608809749801674              2.230348595401123
H              2.318941484302385              2.0886677978261585              2.76051309238378
H              2.1928644140922398              3.9087144282566504              0.26057729673512103
H              1.7789594322550635              4.055017138253198              0.9345610942822895
H              1.510776260941899              1.5167645997160883              -0.25035387572923845
H              1.6503589629495896              1.2432175671334804              0.41973098115852764
H              -1.2155123305349345              -0.18041021488061174              -2.075505609709825
H              -0.5080533965805184              -0.3813250819140674              -2.1023303626667973
H              4.362890676139773              1.761723806192423              0.38456273779379685
H              4.383333677582036              2.439225002216499              0.613560186872339
H              3.9846266049198276              3.822623383061076              2.889454880549183
H              4.0217436028094244              4.559873651433418              2.802243347530084
H              2.0299504230159395              1.8220843636062398              2.528564810649233
H              2.1688735966012382              2.005649730541189              3.2543398355836057
H              2.0010897811770594              3.760126239806559              0.31033725198012063
H              1.7437418955369244              4.004140635516259              0.9413902959326859
H              1.515655487266629              1.6452229349864569              0.12466963215612287
H              1.456667872679275              0.9743858257961923              0.5477054200902065
H              -1.4568442101440786              -0.2088500453786911              -2.1289132569719005
H              -0.974265866034105              -0.5997895753406806              -1.7626864027439832
H              4.2404344875449285              1.6649606626440254              0.48518708311805986
H              4.6232254962212584              2.2624123570185226              0.6009659678988797
H              3.724763906646156              3.9646926412511965              3.0797827604078236
H              4.155978544665073              4.343893975244002              2.6487354968452625
H              2.2858763649900404              1.8529970250095626              2.5650651921684977
H              1.933037761181977              1.7779825136905958              3.2527895207561084
H              2.204222440070462              4.117639130994585              0.4562569249748087
H              1.6363192275009855              4.371420077030386              0.848684797988118
H              1.7344278739875694              1.4468415902382084              0.0009344979077088278
H              1.2232287950372644              1.159708326442626              0.39798787691255244
H              -1.6454445572282692              -0.4450601233443715              -2.310236959255148
H              -1.074725507245242              -0.44788830954454073              -1.9552590282406885
H              4.011298558247782              1.6600651025120734              0.7619519563800846
H              4.623814119559627              2.1507418981607853              0.8787866458611935
H              3.3701077997023163              3.989032678774091              3.0672071492485196
H              3.839426385608487              4.350245973339253              2.6862657985496563
H              1.689629877975639              1.9638733968255444              2.5263059208124
H              2.079116694645547              1.7167600928691507              3.2265086199428925
H              2.0847158598705313              4.003607314354307              0.2840350983465257
H              1.6785271612289756              3.9669527265047266              0.9235910502096093
H              1.6341143649837835              1.6332985572691638              -0.07981124958461194
H              1.2847999761202413              1.1195666511794073              0.3751417855358518
H              -1.6437029967269634              -0.4754810903355862              -2.431395469898363
H              -0.8811801803669032              -0.261230783690618              -2.158931047721901
H              4.164257501817885              1.7559887209284744              1.011738591629233
H              4.405389532733471              2.2486232324060196              0.5223654582002766
H              3.406425044982734              4.391875629144092              2.688987991497782
H              4.031517004139364              4.580093679787229              2.581962360812515
H              1.8831725777958594              1.6776061065466994              2.5583224684471704
H              2.287149894800471              1.889371298467955              3.1307290958140475
H              2.022105209752429              3.8790086130383217              0.4590036116401613
H              1.7795143387316308              4.392079650818308              0.8501002758543093
H              1.7085314301296952              1.52077687939887              0.010421978980513695
H              1.049821990891853              1.2571412789885448              0.15753538738749626
H              -1.5872324321980558              -0.28437797827933925              -2.479753281021403
H              -0.8253948734297449              -0.3653699154178531              -2.2534537839490323
H              4.059709911620128              1.8093959703233433              0.621336535913848
H              4.308504684069416              2.4498480197657764              0.7180150744660894
H              3.4968155614556813              4.395868035596455              3.0938191055183375
H              3.79826751398367              4.600805555602322              2.456089062478466
H              1.9583432806959256              2.20388252591154              2.315871177519779
H              2.3540584787296583              1.8301072105330587              2.8278787176063727
H              2.2514054005572626              3.908619935467178              0.3485258092488223
H              1.7197663816191258              4.192316323202816              0.770292637714447
