72

H              2.4664732972874273              1.4880113182888375              1.1215347202076564
H              1.7295267276330313              1.6970781545750333              0.9495815423110248
H              0.5697664626656702              -0.7602611186611183              -1.6530851303575291
H              0.3303241811996331              -0.03746927567443083              -1.7746877288341507
H              4.814077456515891              2.4886864073381423              1.0337146524819651
H              4.821380150802471              1.72943034320423              1.3100249058233282
H              3.838357517094105              4.473377860356893              3.2050404315890306
H              4.465446399319375              4.643298854109788              2.8872397343876237
H              3.646356525768983              1.654253511627271              3.0463670374767515
H              3.06094963080327              1.8653174808696784              3.5095958402082434
H              2.5142405104260264              3.9133604210159514              0.36044294727788395
H              2.829530482845812              4.58029213635303              0.2568139785514366
H              2.3196826098086563              1.5676806177851184              1.067286174386952
H              1.7992992584056815              1.8899938312992277              0.7014948612189421
H              0.9030646753836117              -0.7667402652008806              -1.9314302967409103
H              0.5382095012064881              -0.12112646159940361              -1.7081395779381736
H              4.843766798171286              2.380009288707605              1.0067093405222263
H              4.872849375413783              1.7280682029968362              1.242323046906624
H              3.6828092813728803              4.827173981646823              3.1363164907981957
H              4.355395646587551              4.689032625821839              2.848775089481797
H              3.4669472352532957              1.3554342852776111              3.0794002329491503
H              3.033102696015877              1.670553587863807              3.6780338566104853
H              2.71616077874331              4.126370584379743              0.670054506062119
H              2.923841332972831              4.580831258969832              0.08442607429396466
H              2.2908625401164597              1.6497525701355384              0.9229153640160993
H              1.5884248460843116              1.5336519599222092              0.6790109087005395
H              1.156192116208889              -0.7915383210530097              -1.8965890850742855
H              0.7087389545810143              -0.2555596652910351              -1.7281882138351117
H              5.263844469186946              2.4394641912538155              1.300135346076069
H              4.867600119394682              1.8155286333919793              1.5023165864353207
H              3.964658181424537              5.121740701321669              3.203705547444321
H              4.36640525509468              4.596614866096085              2.8658180868182628
H              3.3677171869852858              1.4328324369059264              3.3328089893160526
H              2.996876971633751              2.0626430562672073              3.4727342346945345
H              2.9912330735530452              4.021801735650198              0.5364364116102976
H              2.879959738931592              4.671167221406574              0.1909701012491145
H              2.4783163246550246              1.584642794367187              0.9743593356170327
H              1.7865833611246846              1.7225229761579546              0.6078795801997958
H              0.9308874452707625              -0.9726206778646086              -2.014543688861908
H              0.55766622461624              -0.37861803130571603              -1.8664750901438385
H              5.12905511871527              2.6535729091871834              1.0435358679979547
H              5.006453902829878              2.2110462035832326              1.557324413950129
H              3.919340502598307              4.9187179818063855              2.895357934937713
H              4.590649636386525              4.697895643535109              2.996496940378246
H              3.4843206782754184              1.46295674156917              3.4182189590923446
H              2.930623673660032              2.022490680823051              3.4000482866734183
H              3.2199053720882214              3.859710517795728              0.41972586518612814
H              2.841395400000738              4.442293186110457              0.41077585313876325
H              2.4942066045482387              1.2969221742740733              0.9751628038760164
H              1.9342438488284266              1.6606642109419953              0.6428997683064146
H              0.7378677822219964              -1.0882934407789715              -1.9445855672617411
H              0.5424418491438812              -0.2965330977605893              -1.9753384660159683
H              4.981802131466437              2.6960767918217243              1.2963566282496979
H              4.978187006161875              1.9858613115608688              1.0547856966125186
H              3.8316819305983687              4.665326187888111              3.1792082886989865
H              4.487582500215916              4.4259681060742775              2.9576303426313246
H              2.9360175769992485              1.21930933409702              3.4741321205710927
H              3.129417044693946              1.937599937567392              3.62481424059323
H              3.055096690955458              3.826662733832634              0.736261499523687
H              2.571425572595418              4.144637274269508              0.3073895924614045
H              2.527867400766549              1.4166228441103939              1.010940665586456
H              1.9934887360325189              1.9561170328084403              1.0410151300820931
H              0.8153085694866354              -0.9631381464773594              -1.6153649687887066
H              0.5156902842326021              -0.35003641933951946              -1.8458921290769537
H              4.905042539601438              2.5871295121080014              1.17607811223536
H              5.05508535662552              1.839550310965529              1.2658906755147754
H              4.085777558156039              4.2375020715579055              3.2291652208418276
H              4.522073264852653              4.553420238206471              2.765971813342451
H              3.2661133738555383              1.4476954510253026              3.5078387344690687
H              2.8847417974970218              2.0873926252431683              3.5620314198313587
H              2.711564845310373              4.066658915253123              0.8584045480688227
H              2.739368200901366              4.259926880379987              0.18403186508088581
